47
Coordinates from ORCA-job /home/esp/scriptDevelopment/drFrankenstein/11_PCY_CHARMM/04_torsion_scanning/torsion_NH1-CT1-CG321-CG2R61/scans_PCY_conformer_21/PCY_conformer_21_forwards/orca_scan E -79.901411792430
  H           0.45432470428284     -2.16053798956373      1.96801683870902
  H          -1.88109149181026      0.31960554490628      3.10968184990221
  H           1.25134169518796      2.02536097377126      3.08860704037444
  H           0.80439071912221      4.39995657503648     -0.91053112548867
  H           0.11649150465684     -2.14584250885476      3.69596324431635
  H           1.39987938261624      3.69835678981039      1.28142484675877
  H          -0.31345437946765     -0.82009472520422      0.31239409225321
  H           1.60422908641518      3.21603378349258     -1.93747609307783
  H          -5.41334898211199     -1.67040064299067      1.76367892477691
  H          -0.13772242187806      0.82087575576251     -1.47134914561651
  H          -4.07855961156557     -3.72286740559717      1.37620625503299
  H          -1.30559371798345      3.28459130591911     -4.02434148264953
  H          -4.29224860199268      0.34842488396275      2.66239305855841
  N          -0.37015544606670      3.29982473566578     -3.60116261875364
  C          -0.47071835320724      3.36191241615505     -2.24892716311643
  C          -1.85953326291781      3.38051584260179     -1.80651757027607
  C           0.70612028057442      3.39827925158072     -1.34168253326295
  O          -2.77411289749205      3.30526552381541     -2.65294266237030
  C           0.62438243250705      2.38417271795858     -0.22605079438567
  C           1.02228218487001      2.71018578975968      1.06748969432452
  C           0.94362501895837      1.78223390155507      2.08456270441297
  C           0.45280253152520      0.50071766301275      1.83464900360305
  C           0.06569450369248      0.16253333074383      0.54303221360885
  C           0.16234229882104      1.09825645715071     -0.47169194906983
  O           0.38549980086102     -0.32616700479369      2.92173333389642
  C          -0.10600124080394     -1.63675853128058      2.75226779387240
  C          -1.58999928377114     -1.69497105539133      2.49089933230403
  C          -2.36346003251519     -0.56250367083806      2.71915297327770
  C          -3.72340843960487     -0.54638825324088      2.46641408294058
  C          -4.35543523328468     -1.67729465458167      1.96742229924455
  C          -3.61905543416905     -2.81933886318504      1.74566625434578
  C          -2.24536133789681     -2.84230487556566      2.01065515420331
  N          -1.57120844266712     -4.06520813443163      1.78105661266738
  O          -0.42946210309284     -4.22105700711932      2.21645243180899
  O          -2.15370719613743     -4.94877811787473      1.15084439789268
  C          -3.42173868341307      3.42911651481214      0.07749395502022
  N          -2.09818706163835      3.51502589942100     -0.48768521551973
  H          -1.31963308683749      3.49681591348774      0.15338359589106
  H          -3.59674500291471      4.27120910393337      0.74504317467305
  H          -4.13959028147686      3.45371824597780     -0.74034478242766
  H          -3.53870734047146      2.49572756815090      0.63153870447593
  C           0.71420954405885      3.22061143307401     -4.43661126329773
  O           1.87271047164400      3.21822239168171     -4.03909071773518
  C           0.32633552674043      3.14496926702729     -5.88513802758568
  H           1.22223459735371      3.05811129965810     -6.49230183125079
  H          -0.31515586582539      2.28469666509711     -6.05868712048962
  H          -0.21648105087399      4.04319589553112     -6.16960176677198
