47
Coordinates from ORCA-job /home/esp/scriptDevelopment/drFrankenstein/11_PCY_CHARMM/04_torsion_scanning/torsion_NH1-CT1-CG321-CG2R61/scans_PCY_conformer_21/PCY_conformer_21_forwards/orca_scan E -79.901389491910
  H          -0.80026565092843     -1.72052227270424      3.07881052852354
  H          -1.32719261741551     -2.10650737844747     -0.43997757324486
  H          -3.98094499716095      0.22257887071992      0.85362535350967
  H          -1.88640792272188      4.63677346534822      0.92587984868813
  H          -1.80325145995623     -3.09426189954368      2.62064512096426
  H          -3.63683132030969      2.59251403207717      0.24313511691799
  H           0.18651354435829     -0.14815864624216      1.71488006150956
  H          -0.26596148594787      4.25938911214707      0.31750854778904
  H           2.46867806585080     -3.85302715835311     -1.33297442615077
  H           0.52116513283285      2.17994829366682      1.12058308055932
  H           2.85786543127705     -4.18533136129483      1.09235727103837
  H          -3.06772809106177      5.02230354902088     -2.44650138141433
  H           0.34324507460504     -2.82379984639427     -2.08636319902178
  N          -2.91301485779368      4.99888636188841     -1.43187799832448
  C          -1.81040754171266      4.26177399613023     -1.14505533506869
  C          -1.20301571942320      3.69775789566501     -2.34231798039049
  C          -1.32472999173069      4.00349033071096      0.23694206690524
  O          -1.67446930251714      3.97786233314415     -3.46371772981287
  C          -1.52918732967094      2.55305648870443      0.61973788532975
  C          -2.79869382844525      1.98718686604962      0.55273460681511
  C          -3.00042478005393      0.66879033239691      0.89707410969907
  C          -1.93140310555192     -0.12257930671213      1.32097165899866
  C          -0.66160415648240      0.43475394174061      1.39316589633424
  C          -0.47188594539517      1.76186719091129      1.04155083452025
  O          -2.24269516203988     -1.41798629668972      1.62929663271000
  C          -1.25587211048206     -2.23315691423223      2.22250196821833
  C          -0.20276879257219     -2.71768406806435      1.25881034346628
  C          -0.40503803297033     -2.55629372032797     -0.10691457884942
  C           0.53830798398613     -2.95996083225519     -1.03489258419640
  C           1.72824287876501     -3.53968275612664     -0.61581887571131
  C           1.95247117898700     -3.72372668455276      0.73021296316771
  C           0.99584052381613     -3.32658480323389      1.67075574580699
  N           1.29585614421987     -3.57639901250567      3.03147920008431
  O           0.40884001147417     -3.46983715154082      3.87874440636709
  O           2.44520475930839     -3.90158868617414      3.32955630092891
  C           0.53137261790775      2.24849637650004     -3.28499683724713
  N          -0.12647443867977      2.90402629579901     -2.18211803979514
  H           0.15030348437661      2.63448311896863     -1.25146630241903
  H           0.39133222987350      1.16857139514968     -3.22775554102145
  H           0.09069042120417      2.62116073644313     -4.20791641280992
  H           1.59702470455282      2.47466619486101     -3.27224478672292
  C          -3.78987221292728      5.68716240566351     -0.63260345023148
  O          -3.70098274786271      5.72758058028172      0.58799413001172
  C          -4.86822037334326      6.37778281748640     -1.41685595434553
  H          -5.53525633354251      6.89317604630378     -0.73252506514033
  H          -4.42643961624141      7.09743171109480     -2.10170601962960
  H          -5.43289426245478      5.65162805652179     -1.99636360731571
