47
Coordinates from ORCA-job /home/esp/scriptDevelopment/drFrankenstein/11_PCY_CHARMM/04_torsion_scanning/torsion_NH1-CT1-CG321-CG2R61/scans_PCY_conformer_21/PCY_conformer_21_forwards/orca_scan E -79.896423697590
  H           0.15480394953514     -1.79358940251825      2.72863216837583
  H          -3.04462766462120     -1.20605659936092      1.20169347258560
  H          -2.77923206871141      1.39614355041446      3.58372411977675
  H          -1.75499875022778      4.79020477402527      0.58744577921608
  H          -1.19532629030084     -2.67505093648827      3.43723401381313
  H          -2.54302682961062      3.55588897707219      2.41848017111097
  H           0.16424318142900     -0.31082973229851      1.00124430071783
  H           0.00790651761165      4.63295180804464      0.62483968216294
  H          -2.39703750862062     -3.65359663213943     -2.23667649324981
  H           0.41920362568675      1.82649555676055     -0.12183234958960
  H          -0.39647836125601     -4.62504258988508     -1.14028904533923
  H          -1.21403465235923      2.87666630705984     -2.77981137621351
  H          -3.73095361972746     -1.95016318655288     -1.02348180636047
  N          -1.54737253032682      2.96476071866507     -1.81376006585951
  C          -0.89460185839930      3.97311229814224     -1.17586393799743
  C          -0.03653901553960      4.72054565227509     -2.08642260933229
  C          -0.91520017695282      4.14642626107840      0.30275800222690
  O           0.05507095381370      4.35874789076455     -3.27815281967371
  C          -1.05817876732297      2.84183076149899      1.04823392340513
  C          -1.94177256786487      2.71414123164245      2.11306729151772
  C          -2.08426635391060      1.50988464036916      2.76732482500703
  C          -1.34696717646452      0.39632403179222      2.36684053573782
  C          -0.43376991387591      0.52501446587239      1.32829984780104
  C          -0.29291054042468      1.74292280174968      0.68652008877685
  O          -1.60999156339290     -0.76375817481688      3.04681328250949
  C          -0.93125708956484     -1.94033095948918      2.66938812992710
  C          -1.33041381515455     -2.46662985821514      1.31375377706642
  C          -2.45999579554388     -1.95239748951031      0.68716211905197
  C          -2.84652877604319     -2.37120313677616     -0.57334751286456
  C          -2.10337037409821     -3.32691215028550     -1.25288847764034
  C          -0.98884914040283     -3.86719309534249     -0.65164303401624
  C          -0.59993644873817     -3.45293546011889      0.62707351918695
  N           0.54357010906565     -4.07724015217103      1.17884763173376
  O           0.79547196655693     -3.93829615249214      2.37702053469456
  O           1.25938425311371     -4.75373982770883      0.43824268515190
  C           1.46950209921991      6.62116328380348     -2.43154004443252
  N           0.62431698930704      5.79308795089841     -1.60650506593610
  H           0.46005922835932      6.10198483597945     -0.66219969463900
  H           2.47151889263783      6.67610967716837     -2.00647817529535
  H           1.51867401855280      6.16987034892863     -3.42091916660456
  H           1.05770248091852      7.62740813811764     -2.51479122561663
  C          -2.65649550120360      2.24374534342191     -1.43994503075645
  O          -3.30294059509784      2.49676220280229     -0.43698841553061
  C          -2.97792737901412      1.13016002323342     -2.39476079082591
  H          -3.92348229087511      0.67923951981954     -2.11063116071188
  H          -3.04137756405639      1.50275449882652     -3.41323888756176
  H          -2.19254728610505      0.37862798594287     -2.34648271550638
