47
Coordinates from ORCA-job /home/esp/scriptDevelopment/drFrankenstein/11_PCY_CHARMM/04_torsion_scanning/torsion_NH1-CT1-CG321-CG2R61/scans_PCY_conformer_21/PCY_conformer_21_forwards/orca_scan E -79.900106257640
  H           0.41942989086810     -1.77559015601358      2.70011988287321
  H          -2.85820526366439     -0.64102958301533      1.80364882710754
  H          -1.02608593858624      2.32615427908261      3.04227372711102
  H           1.30581845060161      4.16102616161341     -0.76545387302046
  H          -0.80212170143163     -1.92084761167035      3.96197851991851
  H          -0.36723942065984      3.90738314983593      1.27542275094370
  H           0.20835243089093     -0.93589581509360      0.57559580922714
  H           1.32062382078352      2.80057158068492     -1.90465557468580
  H          -3.95983484812050     -4.06504410716980     -0.50149209614614
  H           0.86893007005351      0.62930957428947     -1.16500033247849
  H          -1.99806701244058     -5.27709857389682      0.40765170320863
  H          -2.07629432405682      3.53748479251928     -3.00091448659488
  H          -4.38789173173536     -1.73562711889927      0.23181442972858
  N          -1.17919063195216      3.09520456615073     -2.77011381346340
  C          -0.51943563794080      3.83322787508681     -1.83823748353327
  C          -1.25669051577637      5.03948104715859     -1.48737707867272
  C           0.71736348777026      3.34182110610686     -1.17525284103847
  O          -2.35192634203126      5.26969173991476     -2.04118608842883
  C           0.31721923051037      2.37970174495390     -0.07032782276697
  C          -0.23144135071824      2.84914370910763      1.11897398795813
  C          -0.60709697492343      1.97261640140548      2.11401708088460
  C          -0.45098103867876      0.59717712745223      1.93997183333723
  C           0.08373671025319      0.12113365089674      0.74964586041027
  C           0.46143557837297      1.01193231854102     -0.24140108192623
  O          -0.86328310660122     -0.18004727008582      2.98797149417584
  C          -0.63156938728230     -1.57015035526749      2.93851377466717
  C          -1.55188373482945     -2.30830131704876      2.00006024997517
  C          -2.66812990643234     -1.65555790280753      1.49039129967458
  C          -3.53051024245436     -2.27361694524443      0.60272097779766
  C          -3.29452225178805     -3.57890436344176      0.19266964831148
  C          -2.20438251687663     -4.25664058796664      0.69065564660224
  C          -1.33602808300320     -3.63767243541749      1.59635797423615
  N          -0.25577991012928     -4.41456377855653      2.07824569321795
  O           0.39483152911041     -4.01735842840354      3.04548082844036
  O           0.00024332789479     -5.47913901932590      1.51469388185546
  C          -1.36117894647638      7.10062594652340     -0.16588386507048
  N          -0.72049623930996      5.87662556772608     -0.57801451136655
  H           0.18680835522583      5.67642987557237     -0.18914890124647
  H          -0.74405828236598      7.96119276783341     -0.42521375639915
  H          -2.31537795837004      7.17081600352274     -0.68495185168837
  H          -1.53311247425863      7.09221404684548      0.91067326617628
  C          -0.80159959693753      1.99351086185761     -3.49384437060407
  O           0.28822420367689      1.45001500625323     -3.37720516178937
  C          -1.86847267405610      1.53295232219001     -4.44508883597920
  H          -1.51944627464320      0.65345476983852     -4.97755733721455
  H          -2.77458780764500      1.28990137773700     -3.89608734723067
  H          -2.09707495983640      2.32029599862429     -5.15915063649437
