47
Coordinates from ORCA-job /home/esp/scriptDevelopment/drFrankenstein/11_PCY_CHARMM/04_torsion_scanning/torsion_NH1-CT1-CG321-CG2R61/scans_PCY_conformer_21/PCY_conformer_21_forwards/orca_scan E -79.901502898630
  H           0.52453004831089     -2.03741527489400      2.01031289065449
  H          -2.20476787096911      0.08293633285570      2.94267305676435
  H           0.89245741498398      2.14105372437506      3.17208628458618
  H           0.98872578587330      4.40437914925516     -0.91525593332193
  H           0.07024757416676     -2.09291085312831      3.71137886374635
  H           1.18329590228762      3.78630274716838      1.35902605376032
  H          -0.35197807014946     -0.77992938618492      0.31413309088573
  H           1.60544356434665      3.10504977103957     -1.94237974839780
  H          -5.32774317952869     -2.41076068004397      1.43118011707538
  H          -0.04670983219853      0.84005812477090     -1.47511473681952
  H          -3.69312369111068     -4.25592263229830      1.17155440363829
  H          -1.39325023382674      3.32959427096922     -3.89971240489614
  H          -4.56312895992289     -0.23778357763070      2.34460878310010
  N          -0.44984168664804      3.20562440786019     -3.51353697233233
  C          -0.44851903765381      3.49660003798397     -2.18791165679758
  C          -1.76980290726611      3.88382118735985     -1.71230818985834
  C           0.76029359275194      3.41681749622746     -1.32557193687792
  O          -2.72505187162384      3.92629849450520     -2.51513696111800
  C           0.57708067864901      2.43224329292403     -0.19240024918185
  C           0.83789518147758      2.79000189856626      1.12657884645336
  C           0.68354732301680      1.87607874939106      2.14832979877755
  C           0.25611691152302      0.57723294095078      1.87454801073214
  C          -0.01321425060129      0.21391082509657      0.55995052965779
  C           0.15264612533159      1.13801679429057     -0.45657109889957
  O           0.13171462348554     -0.24384676275417      2.96101333013238
  C          -0.15690138094506     -1.60871335625857      2.75549474025424
  C          -1.59507103652381     -1.87833841521615      2.39337584534512
  C          -2.53353710476560     -0.86441217431809      2.54555126795811
  C          -3.86282851174553     -1.04590314728188      2.20839374713575
  C          -4.29465631513959     -2.26327712431045      1.69916868527824
  C          -3.39108523299474     -3.29121446839472      1.54862288371788
  C          -2.04784415130935     -3.11396953737562      1.89828347023852
  N          -1.19343050052270     -4.23053488772398      1.73681260851824
  O          -0.06665072584156     -4.21127952050576      2.23356179108006
  O          -1.60805545344842     -5.20142752765872      1.10274151196147
  C          -3.15543936777198      4.57678941171633      0.18493515732002
  N          -1.89498197835708      4.21203916421334     -0.41252452488092
  H          -1.10847601231269      4.08378478494191      0.20505513488079
  H          -3.07511971322055      5.55340745239514      0.66157844856883
  H          -3.90260265425629      4.61835283257330     -0.60558471435783
  H          -3.45379818310757      3.83671326855271      0.92778061387038
  C           0.54084024924479      2.77913436695000     -4.36011257934799
  O           1.69683575217262      2.58726158616034     -4.00342485724702
  C           0.05397582338904      2.57341235861685     -5.76568541608690
  H           0.88240105563903      2.24897759530601     -6.38807158006759
  H          -0.72813321165206      1.81824014856624     -5.78266036514544
  H          -0.35328448123642      3.50151611039608     -6.15877604045745
