47
Coordinates from ORCA-job /home/esp/scriptDevelopment/drFrankenstein/11_PCY_CHARMM/04_torsion_scanning/torsion_NH1-CT1-CG321-CG2R61/scans_PCY_conformer_21/PCY_conformer_21_forwards/orca_scan E -79.898707969520
  H           0.36601744796898     -2.14225455863426      2.45359181983839
  H          -1.95271345451023      0.54568545153897      3.03619247247916
  H           1.19394241062896      2.17350980842062      2.85839545794448
  H           1.41502369469946      3.66560698872026     -1.56005528814100
  H          -0.05336972863151     -1.81419141432677      4.13138895613312
  H           1.43651302222348      3.50883041258214      0.79648663529222
  H          -0.28031609051655     -1.10716159032309      0.55227162214758
  H           1.45954760842579      2.18590707887487     -2.47160603628451
  H          -5.46633888437299     -1.57335976773288      1.84969171796366
  H          -0.01642814107346      0.20274860584034     -1.48035828512880
  H          -4.17206563085805     -3.68711021037812      1.88302572231984
  H          -1.26995991128961      3.88057193721718     -4.07686990035655
  H          -4.33662474533529      0.54541547618466      2.46461424077007
  N          -0.32995426518877      3.67059547355883     -3.72057272174709
  C          -0.40515223559388      3.13695297835935     -2.47152645562376
  C          -1.79014677347521      3.08561048476507     -2.01108104019628
  C           0.84516988304057      2.75000578423746     -1.76040219644696
  O          -2.70074348061943      3.35703877602776     -2.82267137853899
  C           0.70094826580166      1.95938765540378     -0.49124383339131
  C           1.05618474344265      2.50057851490518      0.74162742763603
  C           0.92233653301863      1.76255702004227      1.89973840064408
  C           0.42738310994372      0.45895763786674      1.85459754839911
  C           0.09353195510630     -0.09869386733051      0.62464620380794
  C           0.24319323202511      0.64649099866329     -0.53126103238416
  O           0.30372699881490     -0.16595822145460      3.06346464358457
  C          -0.21593210569953     -1.47655246616553      3.10256018524357
  C          -1.68698058897651     -1.54959511430657      2.77805712906334
  C          -2.43870832324667     -0.38031912854951      2.77248143117416
  C          -3.78380030610305     -0.38017870964166      2.44852618238821
  C          -4.42074239866926     -1.56626340606512      2.10950298507786
  C          -3.70664540741501     -2.74342331016227      2.12142794384957
  C          -2.34941370744685     -2.74905278451096      2.46238875669189
  N          -1.70081600946673     -4.00532566760560      2.48024474336875
  O          -0.58606928277381     -4.10857392005030      2.99861702049047
  O          -2.27663842282936     -4.97366700498422      1.97781006255671
  C          -3.37636060062325      2.63699640552948     -0.19987920709741
  N          -2.04216559807505      2.79119332652187     -0.72362505902688
  H          -1.27059905900174      2.58308337693802     -0.10796943590165
  H          -3.51866793035102      3.29390300620247      0.65719114104157
  H          -4.08177773994477      2.90238677555277     -0.98513964887297
  H          -3.54136159220684      1.60186933094461      0.10440340586994
  C           0.74320365825105      3.89791411366235     -4.54262724460672
  O           1.89769276325181      3.64880761116348     -4.22206516001392
  C           0.34747333966549      4.49044892153241     -5.86428468559333
  H           1.23773321072065      4.66160516811533     -6.46171748661682
  H          -0.31794240092306      3.81247353748596     -6.39290712463986
  H          -0.17216706181173      5.43255848536435     -5.70909063516734
