47
Coordinates from ORCA-job /home/esp/scriptDevelopment/drFrankenstein/11_PCY_CHARMM/04_torsion_scanning/torsion_NH1-CT1-CG321-CG2R61/scans_PCY_conformer_21/PCY_conformer_21_forwards/orca_scan E -79.896422144260
  H          -0.40314687993420     -1.70887330716851      3.15904438484612
  H          -2.88305917924145     -1.46378268894678      0.59917521627401
  H          -2.87750378529469      1.79001302978976      2.29660703348713
  H           0.84583945307053      4.15483387404015      0.02380256585709
  H          -2.00426135309223     -2.25786151484697      3.64816380933270
  H          -1.88969734882600      3.56599566509544      0.89484815929850
  H           0.27932702298614     -0.85028969848875      1.15330289761965
  H           1.11459245803984      2.97953954131792     -1.27241215362529
  H          -1.73477947189761     -4.96567335288207     -1.55823641047263
  H           1.24049447603260      0.89285863579855     -0.23327653187503
  H          -0.32115548934772     -5.65361978337138      0.35798565172003
  H          -2.41569871048585      4.29093558429113     -2.32091302640791
  H          -3.03261319152206     -2.85882743106572     -1.40760418718750
  N          -1.77278919152879      3.57451807240590     -1.96538787488217
  C          -0.64134417259063      4.15548427293620     -1.48358692503511
  C          -0.61883125866650      5.58831915400957     -1.74822292279506
  C           0.35000145821513      3.43876197267166     -0.63542748121812
  O          -1.59745884564053      6.12380849359007     -2.30970180000887
  C          -0.25702467038891      2.35227921126341      0.21793653235819
  C          -1.41634524467040      2.59656474395974      0.94729458197267
  C          -1.97428915079755      1.61284492978359      1.73483675811507
  C          -1.37710707830461      0.35563907197928      1.81922800358728
  C          -0.20646333273595      0.11167358069906      1.11325828459445
  C           0.34157001294898      1.10732583938822      0.32371928893455
  O          -2.02792734110315     -0.55446743474853      2.61027948722612
  C          -1.44039982582493     -1.81880448048245      2.81820257443143
  C          -1.51757413932100     -2.73480547066546      1.62308719499170
  C          -2.31778012816178     -2.38043745514852      0.54336423281392
  C          -2.40163980568941     -3.16824204348239     -0.59044428181082
  C          -1.67689140691781     -4.34930085459746     -0.67643608927277
  C          -0.88668239477120     -4.73514791436154      0.38264921632899
  C          -0.80503679283531     -3.94419418162865      1.53422415742681
  N           0.01349647778385     -4.42662918749945      2.58230844546160
  O          -0.03183556811223     -3.88805023016589      3.68933134318268
  O           0.75278729949181     -5.38628679971704      2.35802588660369
  C           0.61042108061057      7.70400637997631     -1.62994454946651
  N           0.47341646059371      6.28948485087646     -1.38283887470849
  H           1.27708164714535      5.80897335449910     -1.01254903825600
  H           1.41807083769537      7.89465078845000     -2.33747716106744
  H          -0.32723778858150      8.06360826679461     -2.04988862119591
  H           0.81715438966794      8.22878210831223     -0.69749244747749
  C          -2.06202078963579      2.25849583983742     -2.23465284860974
  O          -1.24635567558650      1.35938300127481     -2.11122007407443
  C          -3.47498656300368      2.06346261363568     -2.70492888655883
  H          -3.63605444453011      1.01511306127492     -2.93499344207902
  H          -4.16561856972988      2.37386528731902     -1.92468413734009
  H          -3.66362348551189      2.66208260399720     -3.59236594103916
