47
Coordinates from ORCA-job /home/esp/scriptDevelopment/drFrankenstein/11_PCY_CHARMM/04_torsion_scanning/torsion_NH1-CT1-CG321-CG2R61/scans_PCY_conformer_21/PCY_conformer_21_forwards/orca_scan E -79.897437252230
  H          -0.30090141595482     -1.66612842032649      3.12830034415014
  H          -2.95370094787897     -1.42474397535578      0.73909095707440
  H          -2.71228235738727      1.88711111017933      2.31525360474966
  H           1.02576916605746      4.05393249460727     -0.18834066118289
  H          -1.88613298565145     -2.15083121449196      3.72554842623563
  H          -1.73832792014495      3.60170037890600      0.83013364371799
  H           0.29346583617541     -0.88054104819129      1.06938272509137
  H           1.09310397117186      2.86705181764671     -1.50071672102171
  H          -2.03057931369198     -5.00116109312796     -1.40602447913638
  H           1.24464986719441      0.80580841317597     -0.39380709005180
  H          -0.48867193863303     -5.66724509452417      0.41678331319974
  H          -2.38399543604037      4.23558082864546     -2.39239078319346
  H          -3.27908604424935     -2.86834266877404     -1.21416534513989
  N          -1.70058219202020      3.53373499971876     -2.08854425685506
  C          -0.60425497297183      4.13632393792942     -1.55394893287200
  C          -0.67467560335814      5.58586317581772     -1.67526393299367
  C           0.42556281036376      3.37629222165623     -0.79685524481398
  O          -1.68596071831163      6.10723838065296     -2.19099900775123
  C          -0.17672284831409      2.32368411741392      0.10558161794523
  C          -1.29349911854295      2.61865540334220      0.88080342455983
  C          -1.84406894961407      1.66880597998633      1.71422930350699
  C          -1.28373863711096      0.39466843549150      1.79643222946538
  C          -0.16005729626609      0.09730906749440      1.03622680716287
  C           0.38239485989435      1.05985261389499      0.20281030695689
  O          -1.91969845884529     -0.47581724677578      2.64181122926335
  C          -1.35919863129355     -1.75218019100371      2.85199027835805
  C          -1.53778807547848     -2.69609935902570      1.69008682472973
  C          -2.40981119366783     -2.35299672328473      0.66366680724022
  C          -2.59243464847393     -3.16767369712690     -0.43916656411883
  C          -1.89603753167089     -4.36383928273886     -0.54779250799407
  C          -1.03493150180651     -4.73783289722604      0.45909734912074
  C          -0.85467745517950     -3.92037485734382      1.58037327721311
  N           0.03042165373294     -4.39211538575822      2.57821469615624
  O           0.06274102238557     -3.83584104863049      3.67677507852432
  O           0.74739646057662     -5.35978768286468      2.31943933935509
  C           0.39951459418889      7.76017782150008     -1.33182292955051
  N           0.36482654283629      6.32173431989470     -1.23288160022258
  H           1.19270458920969      5.86571044809808     -0.88560232372404
  H           1.20677239811789      8.07986085005671     -1.99148130849579
  H          -0.55289894528246      8.09111579050807     -1.74217129272681
  H           0.54395147734695      8.20115347206895     -0.34563934379249
  C          -1.91772041575594      2.22083846079392     -2.42680487152264
  O          -1.06147695792668      1.35730337298569     -2.32045931934165
  C          -3.30661757651777      1.97692750429376     -2.94346554914247
  H          -3.39789029065348      0.94013233876213     -3.25137012157618
  H          -4.02905315576163      2.18552297437609     -2.15803110127630
  H          -3.51678171479601      2.62747115667310     -3.78829629528056
