47
Coordinates from ORCA-job /home/esp/scriptDevelopment/drFrankenstein/11_PCY_CHARMM/04_torsion_scanning/torsion_NH1-CT1-CG321-CG2R61/scans_PCY_conformer_21/PCY_conformer_21_forwards/orca_scan E -79.899634926490
  H           0.22613859488917     -1.66696055419349      2.90199927831734
  H          -2.93785844457086     -0.91991179549410      1.40467203353488
  H          -1.66860136826832      2.26581851617571      2.75544736588254
  H           1.32089848740476      4.02284385125922     -0.74125698578748
  H          -1.16994320365813     -1.89089651699782      3.95344960647680
  H          -0.89349579998949      3.83080307952303      1.01466678329798
  H           0.30009811093514     -0.94097257018909      0.73253944146396
  H           1.16956905821223      2.71846461791034     -1.93002315285670
  H          -3.30664811268986     -4.54084023271001     -0.83152379655654
  H           1.06723289374360      0.60467929547792     -0.97796820731999
  H          -1.42759712223134     -5.50419482053276      0.46620575099127
  H          -2.20874967320423      3.83435855930565     -2.83689536924183
  H          -4.06581037990511     -2.23488697169130     -0.32914447362757
  N          -1.39095026263374      3.26008833956771     -2.60480482563298
  C          -0.53877855428408      3.95037782150237     -1.80127056255303
  C          -1.02356584700413      5.29634108365510     -1.52966896910378
  C           0.63576631922797      3.29340908703007     -1.17068212156617
  O          -2.07300916734475      5.69036553411064     -2.08056117822597
  C           0.16069486018811      2.32984635565894     -0.09962728472163
  C          -0.62223471305734      2.78777887984448      0.95630064426500
  C          -1.06415304351593      1.92091678950390      1.93205446747923
  C          -0.73671612999894      0.56588438430928      1.87190619768094
  C           0.03883303913295      0.10186480445706      0.81733579635081
  C           0.48017131861293      0.98344485403682     -0.15591555178486
  O          -1.23742237882060     -0.20689201901891      2.88451448458552
  C          -0.86501136619865     -1.56521822751015      2.95319606818375
  C          -1.53665438701426     -2.43480087490718      1.92088084056905
  C          -2.60386259125830     -1.92320396902032      1.19204427707889
  C          -3.23992481626779     -2.66565166551401      0.21340690243658
  C          -2.81834149048145     -3.95813243843433     -0.06810828017510
  C          -1.77255998273706     -4.49793959606476      0.64629834249078
  C          -1.13294986356733     -3.75276846213552      1.64297898468023
  N          -0.08377347642729     -4.39313341163983      2.34417896763402
  O           0.36481580993310     -3.88038054560191      3.37024204560357
  O           0.35192059622062     -5.45856960923947      1.90614597068537
  C          -0.71198578041734      7.42264663490424     -0.35281078069011
  N          -0.31574089364007      6.07814487012522     -0.69042030973638
  H           0.52058862513123      5.72169220319445     -0.25699388135168
  H           0.06439178606315      8.13128910938909     -0.64152588715945
  H          -1.62825177599296      7.64838546354678     -0.89553119354431
  H          -0.89512745024607      7.50655623749765      0.71881835495143
  C          -1.26248544512502      2.03656169424183     -3.21196644805597
  O          -0.26729900134288      1.33518167440505     -3.10436718144997
  C          -2.47078398175322      1.66009599712819     -4.02044447586054
  H          -2.30755841067506      0.68873213247496     -4.47710225923748
  H          -3.34633789448626      1.61663568190686     -3.37779790518946
  H          -2.64791669088712      2.40015672875226     -4.79688152321101
