47
Coordinates from ORCA-job /home/esp/scriptDevelopment/drFrankenstein/11_PCY_CHARMM/04_torsion_scanning/torsion_NH1-CT1-CG321-CG2R61/scans_PCY_conformer_21/PCY_conformer_21_forwards/orca_scan E -79.900428307280
  H           0.58570352973331     -1.92319270161261      2.29928932008877
  H          -2.58827713946739     -0.26041575270844      2.35749901547634
  H          -0.00746951005973      2.27618488984183      3.27194831925660
  H           1.16961255502543      4.39232246085765     -0.77798198114736
  H          -0.29883450768705     -2.02747012563346      3.81952474794716
  H           0.48829688792902      3.91700518646149      1.51374204504529
  H           0.00633219181659     -0.84875991241181      0.35970083659212
  H           1.51764503222924      3.03552415698174     -1.86836497019821
  H          -4.75720444795401     -3.24067496936438      0.19765928785577
  H           0.50881788831706      0.77381716477564     -1.37828105633286
  H          -2.84865639146507     -4.79741660084230      0.47889418273240
  H          -1.80014523784409      3.20403584764519     -3.31121978044529
  H          -4.61382058066386     -0.96414034468360      1.16922044876874
  N          -0.84866135373270      2.95030494151758     -3.01874074126898
  C          -0.48309457737286      3.69268895625746     -1.94138736216111
  C          -1.54724450824680      4.60192855258400     -1.53416141998009
  C           0.77942426105687      3.46158465570489     -1.18747110794319
  O          -2.59863173748353      4.65422481822861     -2.20570182884163
  C           0.50971565552068      2.46662689241011     -0.07369541932197
  C           0.36422026805084      2.87902782827551      1.24593663705294
  C           0.09578330659236      1.96655018013122      2.24454987958724
  C          -0.04139132700399      0.61170872009060      1.94492239219277
  C           0.10384042966251      0.19119359081109      0.62829036495975
  C           0.37763271461783      1.11676096436243     -0.36350809322859
  O          -0.31587655923856     -0.20340223255572      3.00862553371020
  C          -0.32881098312522     -1.59978327266778      2.81166318408967
  C          -1.55675951357314     -2.10208896383090      2.09575374986910
  C          -2.64589889677191     -1.25282973730150      1.93895817926296
  C          -3.78832684707723     -1.65044053449954      1.26779636321578
  C          -3.87182923820871     -2.92547140494169      0.72454699953864
  C          -2.81392802957676     -3.79401406617366      0.87396748784153
  C          -1.66129387423864     -3.39812839012818      1.56110508720190
  N          -0.63198257404423     -4.36109349956422      1.68977720861184
  O           0.29228472608167     -4.16128466458631      2.47833162339194
  O          -0.69510415002771     -5.38320850031892      1.00629968266519
  C          -2.33825642573110      6.27517586531869      0.07120900430972
  N          -1.34232808395990      5.37319125122460     -0.45073153387414
  H          -0.49564247533722      5.25944196531763      0.08179628684315
  H          -1.93458735996458      7.28544735664536      0.13388821119201
  H          -3.18914390596701      6.26527732911603     -0.60750106060785
  H          -2.66223579304453      5.95364781226100      1.06164181598807
  C          -0.15633601334944      2.06377055817792     -3.80177563060667
  O           1.00339242707163      1.73395109404643     -3.58610762641363
  C          -0.97669160937696      1.53614676394075     -4.94372632240644
  H          -0.38435172007537      0.82699328357619     -5.51409162977485
  H          -1.86840808663759      1.04306516446408     -4.56479373050044
  H          -1.28245841539819      2.35422742279914     -5.59130660023431
