47
Coordinates from ORCA-job /home/esp/scriptDevelopment/drFrankenstein/11_PCY_CHARMM/04_torsion_scanning/torsion_NH1-CT1-CG321-CG2R61/scans_PCY_conformer_21/PCY_conformer_21_forwards/orca_scan E -79.900562857000
  H           0.39125246545855     -2.17080673519526      2.19628247656309
  H          -1.88560415847372      0.45184838677876      3.14808756167691
  H           1.25381908804555      2.07928956587218      3.02796698404853
  H           1.03893302347287      4.14510574027073     -1.15109947261271
  H           0.01632566330045     -2.01746923256739      3.90967576415651
  H           1.44725425756943      3.62197400910960      1.11156452736449
  H          -0.28624754686955     -0.94267113898472      0.42967031231631
  H           1.62599466956004      2.82415796765280     -2.13265081614930
  H          -5.44917408999998     -1.48742267823116      1.81067865173169
  H          -0.06629518357749      0.57028738609216     -1.46115020482693
  H          -4.17382189728334     -3.59759601339457      1.55396294323374
  H          -1.29328260803364      3.48998139455556     -4.09140730773617
  H          -4.28465969111320      0.53473989069245      2.64461924423186
  N          -0.35131703310796      3.45658121560688     -3.68386275334574
  C          -0.42601143256857      3.20563423807861     -2.35039606391567
  C          -1.81286369712202      3.11476922610825     -1.90379015313046
  C           0.79015498109894      3.13486056491825     -1.49780193670595
  O          -2.72520963644425      3.11880601187674     -2.75667182164645
  C           0.68100673049753      2.21322103355708     -0.31306512978841
  C           1.06498973665889      2.62417307748694      0.96036241422416
  C           0.95976565755844      1.76962370839390      2.03828326231801
  C           0.46014139997903      0.47829990695555      1.87027410393844
  C           0.09430522832742      0.05194465691695      0.59792243908145
  C           0.21792786964429      0.91292581898201     -0.47733997756387
  O           0.36350803851285     -0.26905968674905      3.01087045557988
  C          -0.16772933810947     -1.57271761710260      2.92614992777811
  C          -1.64708434811646     -1.59874381517242      2.63392150781017
  C          -2.38774260653879     -0.43246669865850      2.78865559167378
  C          -3.74054768776083     -0.38540659389616      2.50290738278998
  C          -4.39719659651453     -1.51821771062434      2.04123662824110
  C          -3.69382243616516     -2.69238653935783      1.89191319148194
  C          -2.32840589096224     -2.74667005638579      2.19312837038848
  N          -1.68979127451440     -3.99926254050614      2.03926107699156
  O          -0.56915664880989     -4.17472556343492      2.52242014602856
  O          -2.28041060569497     -4.88988501333795      1.42471883419383
  C          -3.38022022945664      2.87529364441767     -0.03800279516511
  N          -2.06036453956301      3.07684406333739     -0.58178785082198
  H          -1.28303683420956      3.04574177214651      0.06076995530930
  H          -3.60316795100204      3.64809303173055      0.69590370990385
  H          -4.09509220420948      2.93067241661422     -0.85689895262539
  H          -3.44626875758858      1.89354403222257      0.43527143209114
  C           0.72071849628316      3.57846837018557     -4.52965483725593
  O           1.88459800147148      3.51202424467222     -4.15477642934634
  C           0.31185342835745      3.80872002973268     -5.95567976134008
  H           1.19999473910512      3.90987366869722     -6.57189980171056
  H          -0.28319690898360      2.97218461411152     -6.31361325600320
  H          -0.28580164210817      4.71383394582514     -6.02893957345666
