47
Coordinates from ORCA-job /home/esp/scriptDevelopment/drFrankenstein/11_PCY_CHARMM/04_torsion_scanning/torsion_NH1-CT1-CG321-CG2R61/scans_PCY_conformer_21/PCY_conformer_21_forwards/orca_scan E -79.900287307040
  H           0.49038993005808     -1.91088520951211      2.66738867974298
  H          -2.21943007095892      0.42659289192021      2.85783824167581
  H           0.78196160059782      2.41871240735869      2.13976676073290
  H           1.35195015724859      2.12944255938073     -2.73590992093700
  H           0.11552003644938     -1.31388656731435      4.28128446637923
  H           0.86373520877673      3.27871831509759     -0.17680751115789
  H          -0.48505219751485     -1.38668740657583      0.66831495307762
  H          -0.06019086177469      1.19036285157417     -3.16223419271827
  H          -5.37364686423643     -2.43428699689304      2.51459030706516
  H          -0.39696427478038     -0.54074519436730     -1.60657416360819
  H          -3.73294233655948     -4.25137396607858      2.90108219831970
  H          -0.69618246622506      4.89808659516125     -3.70907469322997
  H          -4.59496705417848     -0.08103672820794      2.51875740351484
  N          -0.03286118728420      4.11568767113131     -3.65641269816152
  C          -0.44096012759476      3.21948488697320     -2.71960765786789
  C          -1.71705861935144      3.61238901683535     -2.13071097778906
  C           0.30487000720370      1.95758580378851     -2.46830153734767
  O          -2.20290304677950      4.72501595867544     -2.42398052749093
  C           0.22419247981886      1.43439515120991     -1.05950623595241
  C           0.56425896197302      2.25917415060242      0.01211389153924
  C           0.52045123373622      1.78835349747482      1.30535397563807
  C           0.14188107643955      0.46935151572512      1.56525346337858
  C          -0.18816774201247     -0.36342476459730      0.50370850846661
  C          -0.14126065776357      0.12217472658180     -0.79361639958571
  O           0.12297129130362      0.11245921536264      2.88464709533175
  C          -0.16077104586955     -1.22653334320102      3.22516781753916
  C          -1.61138265989331     -1.60159766015408      3.05706423960848
  C          -2.55316613469552     -0.59912438050179      2.85717878997823
  C          -3.89304899555719     -0.88580330343421      2.66613705329327
  C          -4.33248018436143     -2.20276408294500      2.66666030953673
  C          -3.42572633464593     -3.21742734820527      2.87662967339786
  C          -2.07144214598277     -2.93014953058009      3.08025940480637
  N          -1.21340902144815     -4.03021104736216      3.31387915819071
  O          -0.06792489843526     -3.83307679534977      3.72424396357730
  O          -1.64216836553865     -5.16630146103093      3.10289672816431
  C          -3.58272850977309      3.04668904095534     -0.64971365573450
  N          -2.34878876253773      2.73720997432779     -1.32770324770091
  H          -1.89379647656617      1.86625151944877     -1.09774422944716
  H          -3.42129308770120      3.09433937862946      0.42808703231051
  H          -3.92993793586736      4.01488856573788     -1.00591860269393
  H          -4.33054740580102      2.28615401489712     -0.87022000058104
  C           1.10106398533728      4.17998433653560     -4.42407107670956
  O           1.97368971290743      3.32069946532797     -4.41018938694675
  C           1.15030159111406      5.40882184067523     -5.28520578383195
  H           2.06411811829769      5.39964430760607     -5.87141933443469
  H           0.29209075270724      5.42908643618395     -5.95217204312129
  H           1.12677332771932      6.30156969113238     -4.66522023821712
