47
Coordinates from ORCA-job /home/esp/scriptDevelopment/drFrankenstein/11_PCY_CHARMM/04_torsion_scanning/torsion_NH1-CT1-CG321-CG2R61/scans_PCY_conformer_21/PCY_conformer_21_forwards/orca_scan E -79.901050319690
  H           0.51824621715453     -1.91560443630821      2.63050224332789
  H          -2.13446416663057      0.48252382456238      2.83005658692237
  H           0.85952234158013      2.40287711489737      2.00099999399161
  H           1.22604876938031      1.97473605847725     -2.91817293151495
  H           0.20297040294342     -1.27672608161629      4.24086647732579
  H           0.86514639037657      3.21841920066041     -0.33228120925900
  H          -0.49310036619972     -1.41742542230138      0.64869068474822
  H          -0.27629126891165      1.12017622190012     -3.22934208478492
  H          -5.35662114833413     -2.31639940001177      2.64787846425249
  H          -0.47998007785203     -0.61488270409263     -1.64273734056986
  H          -3.74615196542975     -4.15755572114185      3.04697439904418
  H          -0.65062642499051      4.94914006340572     -3.58269432808174
  H          -4.52733816366709      0.01808825237947      2.56346742680822
  N          -0.01126386849212      4.14537866628290     -3.57648937855712
  C          -0.49379298309368      3.17222877220847     -2.76137361961368
  C          -1.78073975483079      3.54390989524360     -2.18444468692250
  C           0.19292972754355      1.86567552436833     -2.57747441872984
  O          -2.24315840798702      4.68220186407470     -2.40710259131208
  C           0.17732835122548      1.36464663399505     -1.15590280937453
  C           0.56310704804189      2.20545205713165     -0.11388930958230
  C           0.56288867701687      1.75902382527884      1.18888916029252
  C           0.18034358609273      0.44972895820412      1.48762484103014
  C          -0.19330024506712     -0.40019773845070      0.45440637918814
  C          -0.18968453599316      0.06110777152718     -0.85237407822834
  O           0.19996142209579      0.11950866360606      2.81407394838697
  C          -0.10186826907760     -1.20550217448043      3.19146783613058
  C          -1.56434200184214     -1.55238992022899      3.07174179502349
  C          -2.48947237864494     -0.53535829859324      2.86693029221425
  C          -3.83954427225607     -0.79762615797987      2.71744383010786
  C          -4.30717029012878     -2.10390994920120      2.76723920747256
  C          -3.41733564953616     -3.13189072453399      2.98447579425766
  C          -2.05233670583598     -2.86913187457597      3.14505155012845
  N          -1.21228320330041     -3.98142589925315      3.38829830037953
  O          -0.04976410615167     -3.79833111173491      3.75317469303606
  O          -1.67427219130703     -5.11277071412634      3.23221852308380
  C          -3.69201792124711      2.89494857256045     -0.79805335339922
  N          -2.44515535564008      2.61896418122245     -1.46689912045261
  H          -1.99728009347191      1.73629053220295     -1.27098527124343
  H          -3.55351241268928      2.88583090261163      0.28412729493184
  H          -4.03079499416369      3.88135777344527     -1.10957186446222
  H          -4.43528509356956      2.14827560813877     -1.07389323721592
  C           1.15079770474356      4.24302384815958     -4.29714287742802
  O           1.99398056368568      3.35565123572133     -4.34034455838549
  C           1.27241657874937      5.54889147111325     -5.02794409089722
  H           2.20869734716627      5.56646187857241     -5.57729889229715
  H           0.44324946105738      5.66466444965413     -5.72149935593017
  H           1.25033372748821      6.37595450702500     -4.32269831384233
