47
Coordinates from ORCA-job /home/esp/scriptDevelopment/drFrankenstein/11_PCY_CHARMM/04_torsion_scanning/torsion_NH1-CT1-CG321-CG2R61/scans_PCY_conformer_21/PCY_conformer_21_forwards/orca_scan E -79.901031195840
  H          -0.68318898551824     -1.64941799140346      3.12723323184235
  H          -1.55305376546226     -2.00195422336150     -0.32247549728967
  H          -3.98616602870935      0.40020405233669      1.17556425852636
  H          -1.83795382452371      4.72995557505217      0.89741752045478
  H          -1.77859542291043     -2.98371522998599      2.77722599238645
  H          -3.61172197874176      2.74738577249225      0.50153849093978
  H           0.22350363451327     -0.11087297137772      1.68946353550600
  H          -0.20148008357571      4.32546874335101      0.34562573634088
  H           2.05771123183462     -3.91583446905331     -1.56772114853589
  H           0.58851105066388      2.19392764467846      1.03703878886936
  H           2.65491010171006     -4.28036511112161      0.80994942785265
  H          -3.04783770961151      4.76383872587044     -2.49835421698133
  H          -0.07898295714344     -2.78412931810960     -2.11770039463444
  N          -2.91436152422584      4.79701890890163     -1.48104412581207
  C          -1.71952382289131      4.24547902134523     -1.14924936341897
  C          -1.01230032233356      3.73853193096956     -2.31745152497857
  C          -1.25722092734325      4.06725099932618      0.25360722068200
  O          -1.48625166481913      3.93086511055764     -3.45615466640109
  C          -1.48200601647108      2.63457209602051      0.69411139671318
  C          -2.77175067018529      2.11520589114627      0.74468437104780
  C          -2.99011551974981      0.81011910436876      1.12732188346514
  C          -1.91763294160945     -0.01489894782620      1.47041340455493
  C          -0.62772598568252      0.49737008046461      1.42849510283890
  C          -0.42201619976425      1.81187285667777      1.04071116488265
  O          -2.24763300427561     -1.29434389628192      1.82291795093000
  C          -1.23977676296150     -2.14559679817027      2.32245316740570
  C          -0.30458064053219     -2.67256298446522      1.26402823946999
  C          -0.62569962301365     -2.49500833427531     -0.07666459904481
  C           0.20708413902115     -2.93626512274877     -1.08948651167358
  C           1.40265662475135     -3.57274402712605     -0.78415733214219
  C           1.74223047093984     -3.77509578360539      0.53477432399470
  C           0.89749261248001     -3.33898990472790      1.56146994167873
  N           1.31157642861660     -3.61060587811738      2.88753217732454
  O           0.52068430531601     -3.44842032462404      3.81730668364703
  O           2.46102122380906     -4.01062442042258      3.07384970204089
  C           0.91748871188541      2.50333153415098     -3.18383486182637
  N           0.15023720107214      3.09007176051407     -2.11349183758424
  H           0.43895819107763      2.88506357134398     -1.17070524057738
  H           0.93195053040811      1.41680695075177     -3.09317750502600
  H           0.44724089252622      2.78168822660402     -4.12521759660558
  H           1.93971846760387      2.88022960797279     -3.16219238790710
  C          -3.88258754741876      5.41088281967601     -0.72783838867846
  O          -3.81637299832094      5.53012627362481      0.48891154123214
  C          -5.03130201209923      5.90900290684357     -1.55690141489094
  H          -5.76643624347100      6.37543767821286     -0.90810831035322
  H          -4.67766641633379      6.63572148425094     -2.28412593588704
  H          -5.49201421853064      5.08202640929914     -2.09160239437807
