47
Coordinates from ORCA-job /home/esp/scriptDevelopment/drFrankenstein/11_PCY_CHARMM/04_torsion_scanning/torsion_NH1-CT1-CG321-CG2R61/scans_PCY_conformer_21/PCY_conformer_21_forwards/orca_scan E -79.893090942160
  H          -0.54882468357912     -1.84240903545109      3.22018138807140
  H          -2.79254628310651     -1.41414986779605      0.46680061277248
  H          -3.17848496303529      1.58528626035305      2.40251475147466
  H           0.19646642005332      4.47751758692721      0.50094846921741
  H          -2.15573927305973     -2.51290425685054      3.48858689791707
  H          -2.23181760316796      3.50860624942516      1.17538074286071
  H           0.26441355863699     -0.73298826095202      1.39542137044255
  H           1.10857382321199      3.36884515041566     -0.53219463425588
  H          -1.23775572228071     -4.57839921479684     -1.93969013110734
  H           1.18844494242594      1.15473325807999      0.18469087498504
  H           0.02186398147072     -5.42154958255263      0.02176279314036
  H          -2.38634685223656      4.24653681566348     -2.34971875201050
  H          -2.66187832233288     -2.56338359820545     -1.68587602347612
  N          -1.88932936185438      3.55868468926749     -1.76880481720665
  C          -0.71010860616152      4.09538572966273     -1.35255934561016
  C          -0.46066724447614      5.38350857124907     -1.99156990631254
  C           0.10174400004469      3.63070659612196     -0.18853425085999
  O          -1.28047200742768      5.82690797488321     -2.82297678573049
  C          -0.45998766775763      2.46241764360085      0.57315588507999
  C          -1.68571607045923      2.57802778412119      1.22228662617758
  C          -2.22180665009394      1.51227304035060      1.91026575328966
  C          -1.53526090994116      0.30006313231499      1.97337479805026
  C          -0.29401952174093      0.18897102645556      1.36213840475614
  C           0.23209522511775      1.26723274989563      0.67250666734888
  O          -2.17784054428314     -0.70514756150491      2.64777891273910
  C          -1.54334423393671     -1.95750873120126      2.77030864519855
  C          -1.45979640893311     -2.73181187058567      1.47903170008777
  C          -2.17324861260732     -2.29156808768202      0.37035758685725
  C          -2.09932929641847     -2.94186345480997     -0.84805634292794
  C          -1.30191649260622     -4.06915136777606     -0.99237221283360
  C          -0.59642316012032     -4.54012063735024      0.09176154903884
  C          -0.67174638773111     -3.88694386479079      1.32705407752215
  N           0.07219290036294     -4.44844068989074      2.39122946722595
  O          -0.11739832662038     -4.05464915596948      3.54291941250766
  O           0.89454363084141     -5.32901498027579      2.13421172537537
  C           1.02585721320839      7.31321535921578     -2.25626009169674
  N           0.66305644763951      6.05038356307445     -1.66071433942180
  H           1.32284822068104      5.63567628018779     -1.02360251479533
  H           1.94351487586806      7.21429554410423     -2.83701763961237
  H           0.21491337395569      7.61872012953799     -2.91495243278010
  H           1.16924691652518      8.06659097838170     -1.48207652826786
  C          -2.34566551466713      2.26080109466279     -1.84128085549112
  O          -1.66490275978883      1.28956308531210     -1.56143114510878
  C          -3.76620279622717      2.18648112691413     -2.32559459262506
  H          -4.08954960723310      1.15042353691326     -2.33396915133369
  H          -4.41124273948141      2.76410071550993     -1.66876164062135
  H          -3.84138690667781      2.59405854583940     -3.33066497805153
