47
Coordinates from ORCA-job /home/esp/scriptDevelopment/drFrankenstein/11_PCY_CHARMM/04_torsion_scanning/torsion_NH1-CT1-CG321-CG2R61/scans_PCY_conformer_21/PCY_conformer_21_forwards/orca_scan E -79.899033059170
  H          -0.00849162248309     -1.63361816968414      3.06172384393458
  H          -2.96210009718362     -1.15593528606660      1.09010492310616
  H          -2.19923942206866      2.11936133054871      2.50624191355772
  H           1.26827041828551      3.93441119523437     -0.62559450146155
  H          -1.52989587006040     -1.96147273340212      3.88771556449543
  H          -1.32805953282443      3.71105956176878      0.83243364950213
  H           0.35029236807478     -0.92049920312630      0.92182231540656
  H           1.05310814289627      2.68776819392532     -1.86260439970482
  H          -2.67639707183327     -4.79390604273896     -1.12965337488637
  H           1.20698657985535      0.64951349675398     -0.72076330804741
  H          -0.94146120035237     -5.59260706682866      0.45029383237915
  H          -2.30504477719053      4.04348912105611     -2.65473203791549
  H          -3.69645524428199     -2.56171317347091     -0.77737787204438
  N          -1.55996549749483      3.38731286881005     -2.39760229422414
  C          -0.57116442144492      4.02768591585669     -1.71818200298725
  C          -0.84324950173179      5.45125049664534     -1.58334028091752
  C           0.54140653103911      3.26951200163735     -1.09074760250336
  O          -1.86731544311147      5.92949839413685     -2.11594901652115
  C           0.01006996959232      2.29311455927311     -0.06082677570274
  C          -0.95536895650004      2.69761416771582      0.85588195575984
  C          -1.44979557664243      1.81600533339596      1.79292822417371
  C          -0.98884736834787      0.50023874944028      1.83377378598690
  C          -0.02108316955304      0.09185560978129      0.92489444303073
  C           0.46907270263531      0.98741408537626     -0.01026125557890
  O          -1.56093033972836     -0.29525173336440      2.79032107137551
  C          -1.09881500166248     -1.61886796322542      2.94100463827163
  C          -1.53173728921932     -2.54465181145384      1.83250004183719
  C          -2.51566290796213     -2.12683091726700      0.94416563826660
  C          -2.92967068778740     -2.92067525564856     -0.11021957294819
  C          -2.36143811912461     -4.17182208953226     -0.30830439742206
  C          -1.39444996018532     -4.61993393451674      0.56321409125303
  C          -0.97993458046379     -3.82294931962535      1.63597845342270
  N           0.00085628551571     -4.37072776802041      2.49631861193430
  O           0.23679406101415     -3.82598983401032      3.57555439534720
  O           0.59306267644460     -5.39018680539570      2.13996530667052
  C          -0.15673177176191      7.63014435931443     -0.69799208867223
  N           0.02554647010033      6.21276568743327     -0.88905726617249
  H           0.83261278090666      5.79085474152277     -0.45958667611047
  H           0.68392837040571      8.18115308330565     -1.12002730093210
  H          -1.07313452843103      7.92209356527582     -1.20795936189001
  H          -0.24246145298464      7.86198294101323      0.36390097774180
  C          -1.63822136731157      2.09746489988269     -2.85878991559334
  O          -0.73886986088235      1.28212801313530     -2.72171565354418
  C          -2.94005474689447      1.80732954070105     -3.54968933593329
  H          -2.94120163704667      0.77784581457034     -3.89414123993989
  H          -3.76639191107386      1.96138834355958     -2.86045772593964
  H          -3.06934642114118      2.47339303630715     -4.39917241986049
