47
Coordinates from ORCA-job /home/esp/scriptDevelopment/drFrankenstein/11_PCY_CHARMM/04_torsion_scanning/torsion_NH1-CT1-CG321-CG2R61/scans_PCY_conformer_21/PCY_conformer_21_forwards/orca_scan E -79.901533275620
  H          -0.91747149975349     -1.80861531202705      3.02466068022708
  H          -1.05979385906486     -2.14767140084413     -0.53189296840221
  H          -3.93265485389783      0.02680571656232      0.48930006027468
  H          -1.93658953459982      4.53296910591112      0.93663775332970
  H          -1.80656642114944     -3.21680972627541      2.45064118403561
  H          -3.62995144104448      2.41460005970722     -0.06853439524248
  H           0.13043652322571     -0.17220009744363      1.79314344799443
  H          -0.33585089277468      4.18833102046788      0.27371911239645
  H           2.88084340437476     -3.71564299211438     -1.05087113791681
  H           0.42476540310274      2.17460761007269      1.24423009726688
  H           3.02608233903373     -4.09010725943677      1.39489379630725
  H          -3.08679800176503      5.23131185452205     -2.38723084538175
  H           0.80454693304364     -2.75705495611529     -2.00592017121067
  N          -2.89600813364500      5.16612717688088     -1.38046397131305
  C          -1.90885204554759      4.26374166108782     -1.15015505285775
  C          -1.42846127147949      3.65219614058116     -2.38152095738141
  C          -1.39604598788334      3.92885183995050      0.20479224287370
  O          -1.91384552891013      4.00699785522079     -3.47561669832005
  C          -1.57598371025735      2.46481421902086      0.53683007144619
  C          -2.80507939425138      1.84469623381491      0.33105935635448
  C          -2.98360189297048      0.51473062070411      0.64266415596615
  C          -1.93273199851159     -0.23386753407391      1.17547365606001
  C          -0.70364832937406      0.37727101651852      1.38710457966106
  C          -0.53609305421275      1.71479987266453      1.06595184555843
  O          -2.21693117195490     -1.54548078268039      1.43850498908228
  C          -1.26055563641440     -2.32664609225056      2.12043547894920
  C          -0.09362378874351     -2.74890328942588      1.26447018854756
  C          -0.15846685592394     -2.56564300580682     -0.11189654503885
  C           0.89326300653758     -2.90915505956371     -0.94240666394401
  C           2.05624456051946     -3.44971589193541     -0.41052118747127
  C           2.14508345496213     -3.65659818572163      0.94782393551432
  C           1.07923722980960     -3.31991494555799      1.78953719094713
  N           1.24461755111999     -3.59134972697518      3.16888649493275
  O           0.27335839174375     -3.52414929508432      3.92284263905250
  O           2.36540727256138     -3.89575398023793      3.57763265404526
  C           0.07431757812979      2.02677925284312     -3.42608151141830
  N          -0.44337215317703      2.73850347890259     -2.28407098119931
  H          -0.15442943660082      2.42424988062117     -1.37065733079517
  H          -0.21833260724338      0.97670169313925     -3.38896719875763
  H          -0.34093740148158      2.48370503315307     -4.32255795605777
  H           1.16086620039696      2.09830273728980     -3.44828831049440
  C          -3.64016432625251      5.94710536662315     -0.53370498438741
  O          -3.49605694349377      5.95060562202927      0.68250179719089
  C          -4.64605667362335      6.79300463680738     -1.25983192771246
  H          -5.20538615075571      7.38253280890765     -0.53978548917663
  H          -4.13919513295204      7.45711682921482     -1.95560840907585
  H          -5.33051371885143      6.16183019035169     -1.82116271445884
