47
Coordinates from ORCA-job /home/esp/scriptDevelopment/drFrankenstein/11_PCY_CHARMM/04_torsion_scanning/torsion_NH1-CT1-CG321-CG2R61/scans_PCY_conformer_21/PCY_conformer_21_forwards/orca_scan E -79.897280802660
  H           0.23710136473041     -1.73504978754656      2.70826574361948
  H          -2.99805074386120     -1.23272779815690      1.22727609671745
  H          -2.79687993275311      1.35922620481610      3.59611670135911
  H          -1.98820767218016      4.73500378914212      0.51432535063578
  H          -1.07727700109316     -2.65581148926892      3.43385477478950
  H          -2.65413430718105      3.52234757063864      2.42073522314304
  H           0.18651716176279     -0.24253745828075      0.99178795388172
  H          -0.22319552837789      4.73957038848909      0.66003128027948
  H          -2.32920372842511     -3.65158428078361     -2.22706831479010
  H           0.34960823040106      1.89846613881331     -0.14023109111715
  H          -0.28934637429400     -4.57211823660039     -1.15956082885564
  H          -1.32512099453966      2.89046350003841     -2.78926647287789
  H          -3.69168824598862     -1.98648028636110     -0.99221099998058
  N          -1.67396945147978      3.00950089114529     -1.83239412679585
  C          -0.96678068934252      3.97062547249355     -1.18002594078669
  C          -0.01275064598794      4.63020037847163     -2.06139330359178
  C          -1.07686249074208      4.17047907583593      0.28956010895740
  O           0.09574517343440      4.24239906244138     -3.24383447516414
  C          -1.15386290936208      2.86116127641440      1.04146246819547
  C          -2.02369312042284      2.70292601374727      2.11375903436778
  C          -2.11386579933751      1.49668555562636      2.77329356353222
  C          -1.33792356833792      0.41060904483778      2.36944600001570
  C          -0.43978491183695      0.57086861476042      1.32241198549068
  C          -0.35122775514378      1.79126474599255      0.67524348118234
  O          -1.55164780555288     -0.75637034537198      3.05463597647872
  C          -0.84515163594405     -1.91218586900119      2.66432321702354
  C          -1.24861108343944     -2.44596168527289      1.31285403407565
  C          -2.39975536344793     -1.96081288639382      0.70252342474137
  C          -2.79102769805381     -2.38575940652575     -0.55447083456307
  C          -2.03160643308969     -3.31963651832921     -1.24622519859176
  C          -0.89540244762264     -3.83169858586984     -0.66098839091113
  C          -0.50105407961988     -3.41035067292300      0.61368572265150
  N           0.66621191927784     -4.00474295391139      1.14868665226006
  O           0.92890489383679     -3.86357696324331      2.34420465522475
  O           1.39144244450184     -4.65755345305456      0.39619817152318
  C           1.66800946662443      6.38581992160478     -2.36871051490092
  N           0.71682463574534      5.65192534325429     -1.57086505765010
  H           0.55927713597983      5.97680376215568     -0.63090933155608
  H           2.65756995767660      6.33782021459837     -1.91412323143955
  H           1.69998724040086      5.93005611974153     -3.35676110561725
  H           1.36472532479906      7.42894148918405     -2.46191533006961
  C          -2.81246263248629      2.33588828144656     -1.46184780995336
  O          -3.43726912850374      2.59805267404431     -0.44715216199644
  C          -3.19591392418609      1.26055401198896     -2.43768826219881
  H          -4.13297851096122      0.81161497017594     -2.12368064217974
  H          -3.30713104658590      1.67427271387962     -3.43634940758369
  H          -2.41906728899028      0.49942145111670     -2.46101878697469
