47
Coordinates from ORCA-job /home/esp/scriptDevelopment/drFrankenstein/11_PCY_CHARMM/04_torsion_scanning/torsion_NH1-CT1-CG321-CG2R61/scans_PCY_conformer_24/PCY_conformer_24_opt/orca_opt E -79.897703891370
  H      -0.833350     -1.791200      0.729640
  H      -0.631690     -4.142520      3.195360
  H      -0.342180      1.876590      2.864920
  H       0.020210      4.715230     -0.812530
  H       0.366590     -2.521770      1.834890
  H      -0.115170      3.824800      1.371670
  H       0.642610     -0.719200     -0.383270
  H       1.424370      4.020050     -1.622620
  H      -4.394500     -3.467880      5.100440
  H       0.845100      1.210880     -1.862710
  H      -4.596120     -1.306500      3.896830
  H      -0.668220      3.479150     -4.473180
  H      -2.408890     -4.890160      4.716190
  N       0.065470      3.747380     -3.803870
  C      -0.409880      3.556450     -2.543260
  C      -1.770000      3.029430     -2.574820
  C       0.394280      3.817720     -1.318200
  O      -2.306230      2.819380     -3.671170
  C       0.348520      2.651040     -0.363580
  C       0.044310      2.829210      0.982390
  C      -0.082690      1.745660      1.826100
  C       0.087790      0.452460      1.336220
  C       0.455090      0.268640      0.008570
  C       0.577330      1.362320     -0.827380
  O      -0.110840     -0.555640      2.235020
  C      -0.489120     -1.838430      1.768690
  C      -1.612050     -2.331420      2.645540
  C      -1.510600     -3.531160      3.334400
  C      -2.509520     -3.948730      4.198260
  C      -3.623460     -3.153230      4.414870
  C      -3.741540     -1.949340      3.748690
  C      -2.752520     -1.551130      2.856560
  N      -2.964950     -0.311010      2.159020
  O      -3.509470      0.587560      2.769450
  O      -2.635620     -0.242800      0.986750
  C      -3.675640      2.165970     -1.308140
  N      -2.400190      2.831320     -1.395210
  H      -1.876390      2.915420     -0.538330
  H      -3.566820      1.209160     -0.793830
  H      -4.386950      2.786910     -0.760790
  H      -4.038440      2.002220     -2.321120
  C       1.280660      4.182420     -4.263920
  O       2.197910      4.508250     -3.534070
  C       1.374930      4.218030     -5.770440
  H       2.195280      3.576990     -6.087830
  H       0.455820      3.897380     -6.250650
  H       1.615790      5.232110     -6.083540
47
Coordinates from ORCA-job /home/esp/scriptDevelopment/drFrankenstein/11_PCY_CHARMM/04_torsion_scanning/torsion_NH1-CT1-CG321-CG2R61/scans_PCY_conformer_24/PCY_conformer_24_opt/orca_opt E -79.898304408610
  H      -0.820582     -1.795612      0.732047
  H      -0.606052     -4.142547      3.186779
  H      -0.386667      1.899142      2.854736
  H       0.017683      4.724563     -0.831215
  H       0.380516     -2.496815      1.852862
  H      -0.149851      3.841468      1.355086
  H       0.654338     -0.705892     -0.368452
  H       1.423761      4.023198     -1.629216
  H      -4.383351     -3.530439      5.084579
  H       0.863630      1.217639     -1.854333
  H      -4.610295     -1.364404      3.895379
  H      -0.658919      3.466571     -4.489145
  H      -2.377952     -4.923637      4.696751
  N       0.073084      3.733044     -3.818175
  C      -0.407464      3.557858     -2.555780
  C      -1.771227      3.042715     -2.575980
  C       0.392226      3.824747     -1.329550
  O      -2.312779      2.795470     -3.670328
  C       0.339036      2.662591     -0.369338
  C       0.018364      2.845859      0.972274
  C      -0.113609      1.765210      1.819443
  C       0.069835      0.470132      1.337789
  C       0.455890      0.282104      0.015852
  C       0.581209      1.372683     -0.823756
  O      -0.133863     -0.536325      2.238835
  C      -0.486949     -1.832001      1.774533
  C      -1.609238     -2.343904      2.642787
  C      -1.493344     -3.545324      3.326102
  C      -2.489787     -3.981463      4.184663
  C      -3.615099     -3.201976      4.403948
  C      -3.747223     -1.995060      3.745875
  C      -2.761799     -1.580111      2.855960
  N      -2.986853     -0.338592      2.173265
  O      -3.527301      0.559713      2.797006
  O      -2.628854     -0.233651      1.008893
  C      -3.683248      2.237368     -1.276491
  N      -2.405192      2.895434     -1.393026
  H      -1.881193      3.014710     -0.539734
  H      -3.574919      1.304281     -0.719147
  H      -4.391589      2.882878     -0.756775
  H      -4.048560      2.027786     -2.280134
  C       1.292011      4.151784     -4.279736
  O       2.215022      4.477979     -3.546419
  C       1.392002      4.174082     -5.781840
  H       2.207634      3.523329     -6.089404
  H       0.472172      3.858491     -6.260692
  H       1.644370      5.182934     -6.100769
47
Coordinates from ORCA-job /home/esp/scriptDevelopment/drFrankenstein/11_PCY_CHARMM/04_torsion_scanning/torsion_NH1-CT1-CG321-CG2R61/scans_PCY_conformer_24/PCY_conformer_24_opt/orca_opt E -79.897329972320
  H      -0.874663     -1.788125      0.725239
  H      -0.562366     -4.145559      3.130848
  H      -0.455738      1.934460      2.824758
  H       0.024284      4.746386     -0.868029
  H       0.360371     -2.452863      1.829260
  H      -0.189914      3.869895      1.320918
  H       0.621201     -0.685960     -0.373659
  H       1.432379      4.028324     -1.641751
  H      -4.292943     -3.652955      5.152949
  H       0.858455      1.229924     -1.863427
  H      -4.602461     -1.471247      4.014691
  H      -0.613751      3.468733     -4.534008
  H      -2.271608     -4.994971      4.675361
  N       0.107071      3.731204     -3.851887
  C      -0.390469      3.577237     -2.591461
  C      -1.757886      3.081188     -2.601610
  C       0.395373      3.842264     -1.356729
  O      -2.310218      2.793486     -3.695807
  C       0.315887      2.683341     -0.393197
  C      -0.023934      2.873590      0.942993
  C      -0.170200      1.796462      1.792854
  C       0.015735      0.498327      1.318963
  C       0.419242      0.303255      0.002849
  C       0.559562      1.390470     -0.838834
  O      -0.195411     -0.505500      2.223000
  C      -0.526624     -1.817109      1.762448
  C      -1.619442     -2.363319      2.648525
  C      -1.457510     -3.573137      3.306768
  C      -2.419093     -4.047253      4.186393
  C      -3.553533     -3.296327      4.457159
  C      -3.731446     -2.079864      3.828174
  C      -2.783592     -1.629054      2.912074
  N      -3.054785     -0.383353      2.275512
  O      -3.693073      0.454603      2.909019
  O      -2.813871     -0.249823      1.078288
  C      -3.675623      2.338071     -1.266720
  N      -2.396798      2.990429     -1.420051
  H      -1.871021      3.149490     -0.573247
  H      -3.560606      1.433503     -0.663943
  H      -4.379916      3.006472     -0.775388
  H      -4.047938      2.075969     -2.255251
  C       1.335283      4.121987     -4.304394
  O       2.261587      4.444122     -3.553656
  C       1.461842      4.127759     -5.796616
  H       2.271933      3.460872     -6.080679
  H       0.545520      3.824179     -6.284866
  H       1.739729      5.128426     -6.117825
47
Coordinates from ORCA-job /home/esp/scriptDevelopment/drFrankenstein/11_PCY_CHARMM/04_torsion_scanning/torsion_NH1-CT1-CG321-CG2R61/scans_PCY_conformer_24/PCY_conformer_24_opt/orca_opt E -79.898617899950
  H      -0.882252     -1.777919      0.725112
  H      -0.604678     -4.158341      3.118985
  H      -0.411754      1.917110      2.838687
  H       0.014324      4.737583     -0.851820
  H       0.350691     -2.472544      1.817031
  H      -0.158919      3.856924      1.338633
  H       0.606579     -0.697535     -0.383258
  H       1.422052      4.027624     -1.638227
  H      -4.327258     -3.596662      5.139109
  H       0.834510      1.223259     -1.869597
  H      -4.587836     -1.401926      4.011564
  H      -0.625497      3.472794     -4.521791
  H      -2.333117     -4.978647      4.658749
  N       0.091697      3.741247     -3.838015
  C      -0.403107      3.572834     -2.580173
  C      -1.764373      3.058183     -2.600200
  C       0.387013      3.835674     -1.346766
  O      -2.308224      2.799926     -3.697646
  C       0.320996      2.673603     -0.385991
  C      -0.000909      2.860242      0.955041
  C      -0.140120      1.781217      1.803196
  C       0.033363      0.484653      1.322460
  C       0.416758      0.292189      0.000166
  C       0.552332      1.381597     -0.839565
  O      -0.174809     -0.519882      2.224472
  C      -0.526341     -1.819842      1.759773
  C      -1.622714     -2.348208      2.649075
  C      -1.487370     -3.565943      3.298948
  C      -2.459488     -4.024130      4.174421
  C      -3.578398     -3.251198      4.446023
  C      -3.729315     -2.027846      3.823351
  C      -2.769060     -1.590568      2.914769
  N      -3.009410     -0.336896      2.276838
  O      -3.576727      0.535093      2.924149
  O      -2.686841     -0.187625      1.103661
  C      -3.674296      2.245970     -1.299107
  N      -2.403300      2.917289     -1.421982
  H      -1.882063      3.049546     -0.568623
  H      -3.552962      1.318870     -0.734313
  H      -4.388456      2.887421     -0.783888
  H      -4.039072      2.021741     -2.299526
  C       1.316564      4.150142     -4.286142
  O       2.232733      4.475969     -3.534910
  C       1.446342      4.166634     -5.782115
  H       2.265017      3.510654     -6.070037
  H       0.533881      3.854883     -6.276334
  H       1.712833      5.172851     -6.098176
47
Coordinates from ORCA-job /home/esp/scriptDevelopment/drFrankenstein/11_PCY_CHARMM/04_torsion_scanning/torsion_NH1-CT1-CG321-CG2R61/scans_PCY_conformer_24/PCY_conformer_24_opt/orca_opt E -79.898610257650
  H      -0.824970     -1.779346      0.733884
  H      -0.550435     -4.120911      3.186066
  H      -0.397888      1.929713      2.852273
  H       0.030042      4.743039     -0.843772
  H       0.393400     -2.454594      1.855766
  H      -0.145213      3.866472      1.348364
  H       0.622856     -0.691963     -0.363195
  H       1.428768      4.024564     -1.639215
  H      -4.344528     -3.608600      5.082545
  H       0.846358      1.225370     -1.854827
  H      -4.630932     -1.452705      3.888107
  H      -0.645872      3.453486     -4.502322
  H      -2.302155     -4.948917      4.695021
  N       0.079648      3.719707     -3.826309
  C      -0.406877      3.571375     -2.563499
  C      -1.775733      3.077375     -2.568011
  C       0.395295      3.837492     -1.338345
  O      -2.326107      2.809986     -3.657628
  C       0.333435      2.678778     -0.373906
  C       0.014248      2.868797      0.967154
  C      -0.125520      1.791679      1.817362
  C       0.048558      0.494212      1.339437
  C       0.433038      0.298780      0.018089
  C       0.565708      1.386043     -0.824609
  O      -0.162312     -0.507916      2.242313
  C      -0.490281     -1.812456      1.776107
  C      -1.599003     -2.348003      2.644426
  C      -1.453427     -3.547785      3.325057
  C      -2.438577     -4.009801      4.183308
  C      -3.584130     -3.260033      4.403203
  C      -3.749200     -2.057882      3.744234
  C      -2.774254     -1.616824      2.853177
  N      -3.037002     -0.396329      2.162273
  O      -3.648216      0.478981      2.761588
  O      -2.679170     -0.277139      0.996633
  C      -3.699161      2.330449     -1.245739
  N      -2.415886      2.973627     -1.385605
  H      -1.891787      3.115923     -0.535634
  H      -3.595527      1.415320     -0.658182
  H      -4.400185      2.998471     -0.745828
  H      -4.068992      2.089525     -2.240494
  C       1.306407      4.106895     -4.289692
  O       2.231797      4.429351     -3.551341
  C       1.424547      4.104990     -5.787724
  H       2.232154      3.434848     -6.074993
  H       0.503862      3.800071     -6.271954
  H       1.702236      5.103895     -6.117555
47
Coordinates from ORCA-job /home/esp/scriptDevelopment/drFrankenstein/11_PCY_CHARMM/04_torsion_scanning/torsion_NH1-CT1-CG321-CG2R61/scans_PCY_conformer_24/PCY_conformer_24_opt/orca_opt E -79.898678304700
  H      -0.862210     -1.778244      0.728434
  H      -0.564773     -4.134886      3.155163
  H      -0.409393      1.925887      2.842994
  H       0.026992      4.744949     -0.847949
  H       0.370683     -2.457407      1.832289
  H      -0.151398      3.864740      1.342826
  H       0.606002     -0.692087     -0.377097
  H       1.428628      4.026622     -1.638432
  H      -4.322096     -3.616298      5.121953
  H       0.835771      1.227270     -1.864579
  H      -4.613490     -1.446035      3.955208
  H      -0.630935      3.465677     -4.514397
  H      -2.295997     -4.966449      4.685669
  N       0.089179      3.732073     -3.832897
  C      -0.403010      3.578937     -2.572983
  C      -1.769761      3.080052     -2.583806
  C       0.393476      3.840372     -1.343092
  O      -2.318286      2.819187     -3.676689
  C       0.325575      2.679367     -0.381481
  C       0.004823      2.867462      0.959444
  C      -0.137528      1.789117      1.807794
  C       0.033403      0.491927      1.327864
  C       0.417443      0.298087      0.005937
  C       0.554060      1.386806     -0.834496
  O      -0.178856     -0.510615      2.230303
  C      -0.513520     -1.814666      1.765716
  C      -1.611079     -2.350731      2.647735
  C      -1.461280     -3.557316      3.315341
  C      -2.434734     -4.021386      4.185839
  C      -3.571403     -3.266437      4.432688
  C      -3.739424     -2.056539      3.789008
  C      -2.776844     -1.612770      2.885518
  N      -3.039906     -0.381182      2.217283
  O      -3.645263      0.486624      2.834655
  O      -2.692331     -0.243287      1.050264
  C      -3.688733      2.305098     -1.271455
  N      -2.409742      2.958448     -1.403381
  H      -1.886425      3.093465     -0.551644
  H      -3.578742      1.382479     -0.697225
  H      -4.393513      2.961532     -0.761789
  H      -4.057942      2.075523     -2.269093
  C       1.317338      4.122608     -4.289679
  O       2.238891      4.445562     -3.545767
  C       1.443593      4.124428     -5.786527
  H       2.253858      3.456310     -6.070766
  H       0.526078      3.819308     -6.276359
  H       1.721838      5.124428     -6.112333
47
Coordinates from ORCA-job /home/esp/scriptDevelopment/drFrankenstein/11_PCY_CHARMM/04_torsion_scanning/torsion_NH1-CT1-CG321-CG2R61/scans_PCY_conformer_24/PCY_conformer_24_opt/orca_opt E -79.898698882570
  H      -0.891187     -1.770153      0.723761
  H      -0.569828     -4.139909      3.129682
  H      -0.410444      1.927110      2.839157
  H       0.024463      4.747226     -0.850984
  H       0.353779     -2.453845      1.811942
  H      -0.147390      3.866627      1.340870
  H       0.587043     -0.691293     -0.386093
  H       1.428912      4.030196     -1.637730
  H      -4.300204     -3.629849      5.149152
  H       0.823712      1.228652     -1.871200
  H      -4.602939     -1.450726      4.002344
  H      -0.618655      3.470415     -4.522415
  H      -2.282321     -4.980274      4.676239
  N       0.096911      3.737331     -3.836427
  C      -0.399468      3.582837     -2.578872
  C      -1.765232      3.081310     -2.594005
  C       0.392838      3.843382     -1.345929
  O      -2.311142      2.823077     -3.688861
  C       0.322343      2.681379     -0.385641
  C       0.004075      2.869236      0.955903
  C      -0.140935      1.790563      1.803341
  C       0.023431      0.493138      1.321692
  C       0.404021      0.299197     -0.001226
  C       0.544659      1.388411     -0.840427
  O      -0.193158     -0.508834      2.223213
  C      -0.531504     -1.811486      1.757083
  C      -1.619703     -2.350701      2.648473
  C      -1.463153     -3.562100      3.305836
  C      -2.425849     -4.031176      4.185495
  C      -3.557962     -3.276318      4.452651
  C      -3.732297     -2.061571      3.820291
  C      -2.781019     -1.611715      2.907292
  N      -3.051149     -0.374226      2.254439
  O      -3.661338      0.482920      2.882741
  O      -2.707443     -0.219194      1.088253
  C      -3.684732      2.294458     -1.289350
  N      -2.407587      2.952405     -1.415602
  H      -1.886475      3.084784     -0.562039
  H      -3.572731      1.367771     -0.722050
  H      -4.391694      2.945272     -0.775555
  H      -4.052555      2.071124     -2.288954
  C       1.326396      4.129338     -4.288946
  O       2.244828      4.453573     -3.541747
  C       1.458894      4.130770     -5.785138
  H       2.270526      3.462767     -6.065674
  H       0.543597      3.825481     -6.279003
  H       1.738683      5.130628     -6.109970
47
Coordinates from ORCA-job /home/esp/scriptDevelopment/drFrankenstein/11_PCY_CHARMM/04_torsion_scanning/torsion_NH1-CT1-CG321-CG2R61/scans_PCY_conformer_24/PCY_conformer_24_opt/orca_opt E -79.898710448640
  H      -0.897575     -1.767463      0.723267
  H      -0.556482     -4.132541      3.133204
  H      -0.411745      1.931792      2.838112
  H       0.028410      4.750771     -0.852277
  H       0.353030     -2.446193      1.808775
  H      -0.143514      3.870799      1.340128
  H       0.578372     -0.688886     -0.387479
  H       1.432074      4.031277     -1.638418
  H      -4.288552     -3.644941      5.155069
  H       0.819877      1.230249     -1.872236
  H      -4.608785     -1.471759      4.001932
  H      -0.615049      3.470537     -4.524038
  H      -2.261211     -4.982010      4.683373
  N       0.099947      3.736242     -3.837053
  C      -0.397249      3.586535     -2.579737
  C      -1.764910      3.089977     -2.593311
  C       0.395539      3.846304     -1.346944
  O      -2.312223      2.831650     -3.687213
  C       0.322416      2.684395     -0.386696
  C       0.005054      2.873057      0.954920
  C      -0.142976      1.794709      1.802212
  C       0.017615      0.496718      1.320580
  C       0.397813      0.301925     -0.002324
  C       0.541223      1.390871     -0.841476
  O      -0.203013     -0.504014      2.222097
  C      -0.535517     -1.808147      1.755806
  C      -1.619620     -2.352091      2.648966
  C      -1.453803     -3.560829      3.308994
  C      -2.412047     -4.035015      4.190716
  C      -3.549445     -3.287810      4.457043
  C      -3.733417     -2.076325      3.821525
  C      -2.786318     -1.620710      2.906556
  N      -3.067821     -0.388041      2.250389
  O      -3.697177      0.460519      2.871964
  O      -2.715323     -0.227750      1.087468
  C      -3.686958      2.312936     -1.286141
  N      -2.407373      2.965607     -1.414363
  H      -1.885533      3.097719     -0.561192
  H      -3.578303      1.385788     -0.718967
  H      -4.390402      2.966851     -0.771471
  H      -4.057149      2.091075     -2.285224
  C       1.331269      4.122373     -4.290456
  O       2.250492      4.445652     -3.544153
  C       1.464523      4.118485     -5.786612
  H       2.272993      3.445548     -6.064527
  H       0.548105      3.816330     -6.280389
  H       1.749758      5.115844     -6.114390
47
Coordinates from ORCA-job /home/esp/scriptDevelopment/drFrankenstein/11_PCY_CHARMM/04_torsion_scanning/torsion_NH1-CT1-CG321-CG2R61/scans_PCY_conformer_24/PCY_conformer_24_opt/orca_opt E -79.898716811520
  H      -0.914008     -1.763009      0.721619
  H      -0.543345     -4.123988      3.134440
  H      -0.410063      1.935485      2.836482
  H       0.032635      4.753198     -0.854088
  H       0.345474     -2.439630      1.798502
  H      -0.135007      3.874075      1.339179
  H       0.564702     -0.687857     -0.391527
  H       1.436299      4.032439     -1.639258
  H      -4.269938     -3.661371      5.172090
  H       0.813552      1.230495     -1.875188
  H      -4.613874     -1.495463      4.012373
  H      -0.608588      3.473698     -4.527286
  H      -2.233497     -4.983313      4.695061
  N       0.105501      3.736996     -3.838584
  C      -0.393182      3.589931     -2.581980
  C      -1.762774      3.097668     -2.596156
  C       0.399324      3.848554     -1.348742
  O      -2.310244      2.840553     -3.689893
  C       0.323501      2.686403     -0.388837
  C       0.008716      2.875873      0.953307
  C      -0.143244      1.797822      1.800190
  C       0.010568      0.499123      1.317905
  C       0.388902      0.303402     -0.005356
  C       0.536533      1.392144     -0.844141
  O      -0.216244     -0.500141      2.218988
  C      -0.545680     -1.804696      1.751968
  C      -1.622886     -2.353592      2.650329
  C      -1.444509     -3.559147      3.312911
  C      -2.394439     -4.038974      4.200500
  C      -3.536799     -3.300337      4.469777
  C      -3.733634     -2.092767      3.831149
  C      -2.794676     -1.630740      2.910495
  N      -3.091996     -0.403215      2.251919
  O      -3.738769      0.435477      2.869479
  O      -2.734218     -0.236234      1.091500
  C      -3.688518      2.329273     -1.289537
  N      -2.406176      2.976556     -1.417275
  H      -1.884436      3.107136     -0.563836
  H      -3.584091      1.400042     -0.724983
  H      -4.388501      2.985074     -0.772561
  H      -4.060598      2.111804     -2.288910
  C       1.338758      4.119169     -4.291336
  O       2.257910      4.441116     -3.544883
  C       1.472993      4.112349     -5.787506
  H       2.277984      3.434518     -6.063715
  H       0.555538      3.814504     -6.281990
  H       1.764064      5.107606     -6.116583
47
Coordinates from ORCA-job /home/esp/scriptDevelopment/drFrankenstein/11_PCY_CHARMM/04_torsion_scanning/torsion_NH1-CT1-CG321-CG2R61/scans_PCY_conformer_24/PCY_conformer_24_opt/orca_opt E -79.898717951290
  H      -0.911812     -1.762459      0.722486
  H      -0.540318     -4.122208      3.137357
  H      -0.408934      1.937045      2.837390
  H       0.032666      4.752676     -0.854619
  H       0.347497     -2.438088      1.800042
  H      -0.133362      3.874912      1.339120
  H       0.563827     -0.688103     -0.389729
  H       1.436469      4.032049     -1.639681
  H      -4.270940     -3.664049      5.168697
  H       0.813297      1.229411     -1.874199
  H      -4.616052     -1.499352      4.007012
  H      -0.609162      3.472728     -4.527084
  H      -2.231430     -4.983097      4.696115
  N       0.105379      3.735480     -3.838694
  C      -0.393122      3.588790     -2.581870
  C      -1.763244      3.097541     -2.595933
  C       0.399623      3.847960     -1.348973
  O      -2.310782      2.839967     -3.689462
  C       0.324032      2.686252     -0.388489
  C       0.009875      2.876460      0.953743
  C      -0.142422      1.798850      1.801090
  C       0.010747      0.499823      1.319360
  C       0.388742      0.303401     -0.003828
  C       0.536600      1.391703     -0.843169
  O      -0.217271     -0.498959      2.220560
  C      -0.544176     -1.803902      1.753158
  C      -1.621704     -2.353749      2.650531
  C      -1.442535     -3.558542      3.314247
  C      -2.393091     -4.039376      4.200640
  C      -3.537161     -3.302355      4.467405
  C      -3.734598     -2.095483      3.827687
  C      -2.794681     -1.632322      2.908554
  N      -3.092066     -0.404746      2.249879
  O      -3.743020      0.431959      2.865733
  O      -2.730198     -0.236104      1.090961
  C      -3.690389      2.334391     -1.288541
  N      -2.406758      2.979114     -1.416849
  H      -1.884944      3.110123     -0.563533
  H      -3.587920      1.405176     -0.723563
  H      -4.388926      2.991766     -0.771633
  H      -4.063145      2.117271     -2.287734
  C       1.338726      4.117490     -4.291610
  O       2.258043      4.439202     -3.545317
  C       1.472366      4.110114     -5.787835
  H       2.276011      3.430719     -6.064182
  H       0.554261      3.813747     -6.281955
  H       1.765024      5.104787     -6.117272
47
Coordinates from ORCA-job /home/esp/scriptDevelopment/drFrankenstein/11_PCY_CHARMM/04_torsion_scanning/torsion_NH1-CT1-CG321-CG2R61/scans_PCY_conformer_24/PCY_conformer_24_opt/orca_opt E -79.898718811620
  H      -0.913968     -1.762830      0.722952
  H      -0.537303     -4.120041      3.141206
  H      -0.409444      1.937704      2.836940
  H       0.034525      4.752307     -0.855298
  H       0.346507     -2.437546      1.799372
  H      -0.132301      3.875125      1.338262
  H       0.561680     -0.688677     -0.389662
  H       1.437926      4.030725     -1.640241
  H      -4.269146     -3.666244      5.171286
  H       0.812564      1.228312     -1.874405
  H      -4.618291     -1.504038      4.006175
  H      -0.608894      3.474127     -4.527437
  H      -2.226636     -4.981737      4.701420
  N       0.106362      3.736012     -3.839492
  C      -0.392007      3.588962     -2.582449
  C      -1.762583      3.098803     -2.596699
  C       0.400957      3.847346     -1.349656
  O      -2.310567      2.842305     -3.690234
  C       0.324127      2.685796     -0.389080
  C       0.010059      2.876457      0.953143
  C      -0.143131      1.799126      1.800635
  C       0.009116      0.499853      1.319181
  C       0.387069      0.302969     -0.003917
  C       0.535736      1.391012     -0.843477
  O      -0.219637     -0.498613      2.220573
  C      -0.545531     -1.803819      1.753390
  C      -1.622051     -2.354459      2.651587
  C      -1.440640     -3.557873      3.317182
  C      -2.390262     -4.039248      4.204283
  C      -3.535948     -3.304128      4.469624
  C      -3.735554     -2.098632      3.827992
  C      -2.796369     -1.634989      2.908393
  N      -3.095884     -0.408594      2.248199
  O      -3.746921      0.428295      2.863657
  O      -2.734622     -0.240948      1.088943
  C      -3.690043      2.337717     -1.288873
  N      -2.405382      2.980450     -1.417266
  H      -1.882888      3.110136     -0.564181
  H      -3.588864      1.407454     -0.725376
  H      -4.386977      2.995436     -0.770258
  H      -4.064014      2.122797     -2.288069
  C       1.339772      4.118015     -4.292297
  O       2.259256      4.438977     -3.545863
  C       1.472867      4.111294     -5.788551
  H       2.274776      3.430117     -6.065605
  H       0.553917      3.817304     -6.282481
  H       1.767664      5.105490     -6.117519
47
Coordinates from ORCA-job /home/esp/scriptDevelopment/drFrankenstein/11_PCY_CHARMM/04_torsion_scanning/torsion_NH1-CT1-CG321-CG2R61/scans_PCY_conformer_24/PCY_conformer_24_opt/orca_opt E -79.898719268900
  H      -0.914599     -1.763470      0.723219
  H      -0.535892     -4.119538      3.142914
  H      -0.410308      1.937698      2.836613
  H       0.034928      4.752129     -0.855572
  H       0.346485     -2.437432      1.799191
  H      -0.132643      3.875054      1.337849
  H       0.561757     -0.688836     -0.389599
  H       1.438212      4.030262     -1.640448
  H      -4.268455     -3.667474      5.172039
  H       0.812864      1.228002     -1.874373
  H      -4.618840     -1.505958      4.006060
  H      -0.608899      3.474282     -4.527521
  H      -2.224717     -4.981491      4.703497
  N       0.106709      3.735997     -3.839872
  C      -0.391782      3.589001     -2.582745
  C      -1.762651      3.099595     -2.597259
  C       0.401206      3.847071     -1.349922
  O      -2.310627      2.843522     -3.690914
  C       0.324130      2.685590     -0.389272
  C       0.009763      2.876329      0.952897
  C      -0.143680      1.799063      1.800396
  C       0.008639      0.499746      1.319077
  C       0.386974      0.302786     -0.003907
  C       0.535835      1.390783     -0.843514
  O      -0.220681     -0.498600      2.220498
  C      -0.545815     -1.804051      1.753540
  C      -1.621868     -2.355043      2.652109
  C      -1.439655     -3.557923      3.318465
  C      -2.389035     -4.039472      4.205716
  C      -3.535378     -3.305105      4.470393
  C      -3.735688     -2.100021      3.828192
  C      -2.796656     -1.636229      2.908553
  N      -3.096548     -0.409941      2.248270
  O      -3.746722      0.427267      2.864182
  O      -2.736456     -0.242664      1.088591
  C      -3.690888      2.340077     -1.289742
  N      -2.405515      2.981465     -1.417867
  H      -1.882935      3.110511     -0.564751
  H      -3.590735      1.409239     -0.726994
  H      -4.386932      2.998140     -0.770369
  H      -4.065287      2.126364     -2.289022
  C       1.340159      4.117959     -4.292441
  O       2.259510      4.438763     -3.545708
  C       1.473461      4.111444     -5.788640
  H       2.273671      3.428312     -6.065819
  H       0.553824      3.819827     -6.282693
  H       1.770780      5.104983     -6.117286
