47
Coordinates from ORCA-job /home/esp/scriptDevelopment/drFrankenstein/11_PCY_CHARMM/04_torsion_scanning/torsion_NH1-CT1-CG321-CG2R61/scans_PCY_conformer_4/PCY_conformer_4_opt/orca_opt E -79.901343821410
  H          -3.50184497029302     -0.44269213625545      2.31290525559913
  H          -1.25706545400441     -2.70646077697758      0.68866851039185
  H          -2.64386284121756     -0.55956704276533     -1.96772712184090
  H           1.13645932914690      3.21362996788451     -0.62068244784295
  H          -4.21583964062502     -1.98001459106453      1.83416235462877
  H          -1.04097595907717      1.10579859873043     -2.84187817794057
  H          -1.36403393210153      0.31638905540010      2.01277618157615
  H           1.43273555290629      2.17392188327695     -2.02103388825430
  H           0.71715262819854     -4.08863162618440      4.21522638689841
  H           0.19479875240136      1.96585159938591      1.15265553875865
  H          -1.05011855378481     -3.02731922579258      5.59124981375685
  H          -0.29744146612158      4.55186300098799     -4.07595370399629
  H           0.58429251917597     -3.93008249976588      1.74450166642578
  N           0.29162233986071      3.82144915489730     -3.65954021949216
  C          -0.01483772980808      3.66743689211303     -2.34642002106604
  C          -1.08748974695972      4.55734946491232     -1.92630163490679
  C           0.65678165048041      2.68787878988481     -1.45064485809347
  O          -1.58393123840895      5.35558905737701     -2.74784550734198
  C          -0.32047089456943      1.67026951281427     -0.90607745583939
  C          -1.12433675294190      0.94218632796960     -1.77830297792975
  C          -2.01668589333816      0.00844233356369     -1.29969484321889
  C          -2.12675978778973     -0.22619279211232      0.07213980926298
  C          -1.31988723695454      0.48690874595899      0.94909529472883
  C          -0.43159502576256      1.42921200577127      0.45508737550900
  O          -3.04021413652004     -1.17657025414877      0.43547542071830
  C          -3.29172970552264     -1.39274564578100      1.80656559303835
  C          -2.19965708543249     -2.15377421240706      2.51448078238937
  C          -1.20596684300341     -2.77149666192305      1.76412444148540
  C          -0.16662940042368     -3.46260837886159      2.36075328121173
  C          -0.09108976062954     -3.55424990559652      3.74406465350693
  C          -1.06764862473165     -2.96376545447634      4.51437630331751
  C          -2.12464354172695     -2.27101813050658      3.91391665573556
  N          -3.09663966145704     -1.71450704103541      4.77954804572496
  O          -2.85753391912475     -1.67962244545316      5.98643573661390
  O          -4.15194596645020     -1.28549753992716      4.31323924367177
  C          -2.56659898790984      5.29144285916721     -0.11775434521984
  N          -1.47956318023196      4.50019893116010     -0.63816620783310
  H          -1.11477992014174      3.76895556911310     -0.04756567254390
  H          -2.24018222748879      5.83855603214712      0.76610207731612
  H          -2.87005050786718      5.99501138914472     -0.89096825110619
  H          -3.41384944335747      4.65626098947111      0.14458652517794
  C           1.19500124441017      3.18450730289295     -4.47140881807701
  O           1.93855900742917      2.29234703081833     -4.08363181975639
  C           1.16975292600996      3.69829767184720     -5.88208025497270
  H           1.90903008523385      3.16423963736564     -6.47120422914487
  H           0.18411575393299      3.54894127191222     -6.31612262201812
  H           1.39458824659123      4.76186128506682     -5.89517186900867
