47
Coordinates from ORCA-job /home/esp/scriptDevelopment/drFrankenstein/11_PCY_CHARMM/04_torsion_scanning/torsion_NH1-CT1-CG321-CG2R61/scans_PCY_conformer_41/PCY_conformer_41_opt/orca_opt E -79.894973348650
  H      -1.912680     -0.825880      4.737970
  H       0.006870     -2.200330      4.544620
  H      -3.609690      1.306300      2.148980
  H      -1.575070      1.160660     -2.748460
  H      -3.101470     -0.669370      3.418140
  H      -3.829920      1.939650     -0.207930
  H       0.541220      0.513840      1.559580
  H      -2.906480      2.265230     -2.362260
  H       0.804330     -4.453610      1.004890
  H       0.327910      1.177250     -0.814180
  H      -1.136320     -3.367540     -0.095530
  H       0.541070      3.997490     -3.344670
  H       1.346540     -3.876820      3.349360
  N       0.076860      3.082580     -3.300220
  C      -0.974510      3.158340     -2.437330
  C      -1.074940      4.480000     -1.844260
  C      -1.869000      2.008660     -2.127130
  O      -0.281790      5.367390     -2.182670
  C      -1.759460      1.616520     -0.673230
  C      -2.859670      1.653800      0.174700
  C      -2.744410      1.288400      1.503290
  C      -1.515880      0.870660      2.000430
  C      -0.406760      0.842120      1.161120
  C      -0.530460      1.218930     -0.160980
  O      -1.363030      0.483370      3.318480
  C      -2.035760     -0.725760      3.658090
  C      -1.358220     -1.870680      2.943420
  C      -0.256420     -2.477650      3.535100
  C       0.505700     -3.412520      2.857040
  C       0.202900     -3.738730      1.544080
  C      -0.876120     -3.139350      0.927000
  C      -1.660090     -2.225540      1.624830
  N      -2.797240     -1.694390      0.917240
  O      -2.666940     -1.491500     -0.271620
  O      -3.826870     -1.513740      1.538770
  C      -2.210650      5.940940     -0.248000
  N      -2.079700      4.693940     -0.955440
  H      -2.602780      3.905440     -0.611370
  H      -1.522020      6.650260     -0.704300
  H      -3.231460      6.317670     -0.331890
  H      -1.958800      5.823870      0.809170
  C       0.569160      2.051240     -4.058620
  O       0.100010      0.931240     -4.067250
  C       1.766050      2.473400     -4.877350
  H       1.488050      3.274850     -5.558880
  H       2.560330      2.833150     -4.226380
  H       2.126620      1.624190     -5.450320
47
Coordinates from ORCA-job /home/esp/scriptDevelopment/drFrankenstein/11_PCY_CHARMM/04_torsion_scanning/torsion_NH1-CT1-CG321-CG2R61/scans_PCY_conformer_41/PCY_conformer_41_opt/orca_opt E -79.895733468800
  H      -1.994608     -0.881389      4.693926
  H      -0.056757     -2.216648      4.596443
  H      -3.649062      1.351984      2.165150
  H      -1.684882      1.242496     -2.749053
  H      -3.135755     -0.753264      3.331735
  H      -3.870758      2.050719     -0.172566
  H       0.470464      0.450732      1.516504
  H      -2.958019      2.399038     -2.329671
  H       0.954495     -4.475043      1.115063
  H       0.253343      1.168626     -0.840717
  H      -0.949783     -3.433901     -0.085464
  H       0.557478      3.979295     -3.343634
  H       1.370138     -3.874574      3.479458
  N       0.053768      3.085775     -3.293134
  C      -0.989410      3.205941     -2.425009
  C      -1.041209      4.531954     -1.832744
  C      -1.930756      2.094519     -2.113411
  O      -0.204911      5.392265     -2.164190
  C      -1.816785      1.673765     -0.667278
  C      -2.906861      1.726504      0.192772
  C      -2.791063      1.322625      1.510191
  C      -1.571160      0.855831      1.985103
  C      -0.470373      0.816137      1.135282
  C      -0.596103      1.224642     -0.177323
  O      -1.417944      0.438573      3.295328
  C      -2.078942     -0.788051      3.610659
  C      -1.348983     -1.923231      2.930935
  C      -0.265420     -2.505396      3.578297
  C       0.546708     -3.429699      2.943963
  C       0.315264     -3.769028      1.619388
  C      -0.743114     -3.193878      0.946259
  C      -1.579532     -2.292421      1.600263
  N      -2.684919     -1.789473      0.833748
  O      -2.501090     -1.587403     -0.353791
  O      -3.753339     -1.611117      1.397724
  C      -2.145381      6.042135     -0.258207
  N      -2.047881      4.789341     -0.964097
  H      -2.612608      4.023647     -0.633113
  H      -1.421703      6.727135     -0.697144
  H      -3.148450      6.454937     -0.363210
  H      -1.921036      5.912966      0.802248
  C       0.500286      2.034127     -4.050316
  O      -0.018396      0.928737     -4.052983
  C       1.707675      2.399427     -4.873006
  H       1.460907      3.208949     -5.555052
  H       2.517177      2.726763     -4.225881
  H       2.028300      1.532904     -5.443416
47
Coordinates from ORCA-job /home/esp/scriptDevelopment/drFrankenstein/11_PCY_CHARMM/04_torsion_scanning/torsion_NH1-CT1-CG321-CG2R61/scans_PCY_conformer_41/PCY_conformer_41_opt/orca_opt E -79.895964028470
  H      -1.989415     -0.853875      4.690976
  H      -0.090769     -2.236768      4.635485
  H      -3.644313      1.343452      2.150781
  H      -1.711685      1.265741     -2.777669
  H      -3.124407     -0.741318      3.320770
  H      -3.876139      2.055039     -0.182589
  H       0.469616      0.438247      1.477648
  H      -2.970417      2.429251     -2.337190
  H       0.940639     -4.528940      1.180539
  H       0.240839      1.160729     -0.876941
  H      -0.911283     -3.444806     -0.063061
  H       0.560537      3.986070     -3.349329
  H       1.321661     -3.929929      3.552063
  N       0.045573      3.098900     -3.305264
  C      -0.996949      3.219539     -2.437606
  C      -1.046195      4.537371     -1.827946
  C      -1.945286      2.113347     -2.131541
  O      -0.200255      5.402822     -2.144737
  C      -1.825811      1.675951     -0.689657
  C      -2.912472      1.723474      0.174923
  C      -2.790726      1.314586      1.490378
  C      -1.567747      0.851135      1.959142
  C      -0.472811      0.804959      1.101972
  C      -0.604862      1.217416     -0.208993
  O      -1.407332      0.446967      3.273807
  C      -2.069556     -0.776979      3.606514
  C      -1.341561     -1.921229      2.943700
  C      -0.283543     -2.523368      3.614164
  C       0.520639     -3.468031      2.998519
  C       0.308462     -3.807007      1.669849
  C      -0.720921     -3.208415      0.972409
  C      -1.549711     -2.284849      1.607818
  N      -2.611908     -1.744808      0.819637
  O      -2.409143     -1.577851     -0.375667
  O      -3.687913     -1.505257      1.356551
  C      -2.148864      6.023527     -0.226452
  N      -2.047230      4.783883     -0.957055
  H      -2.619791      4.015118     -0.646350
  H      -1.424960      6.720008     -0.645990
  H      -3.151996      6.434217     -0.328530
  H      -1.929508      5.869763      0.830750
  C       0.486662      2.051749     -4.069513
  O      -0.047132      0.947183     -4.083540
  C       1.695762      2.406820     -4.886682
  H       1.458317      3.224257     -5.561798
  H       2.507045      2.719586     -4.235511
  H       2.005868      1.540295     -5.462753
47
Coordinates from ORCA-job /home/esp/scriptDevelopment/drFrankenstein/11_PCY_CHARMM/04_torsion_scanning/torsion_NH1-CT1-CG321-CG2R61/scans_PCY_conformer_41/PCY_conformer_41_opt/orca_opt E -79.896051791430
  H      -1.998523     -0.868199      4.688614
  H      -0.074163     -2.217117      4.612940
  H      -3.660703      1.348608      2.152716
  H      -1.715878      1.258810     -2.765905
  H      -3.136717     -0.756089      3.319645
  H      -3.884184      2.059272     -0.181960
  H       0.456464      0.446299      1.496129
  H      -2.971381      2.429938     -2.333045
  H       0.974261     -4.472126      1.138591
  H       0.236361      1.166479     -0.859848
  H      -0.910903     -3.421816     -0.083825
  H       0.570350      3.968435     -3.343376
  H       1.361667     -3.877964      3.510544
  N       0.048796      3.085343     -3.298664
  C      -0.994628      3.212629     -2.434707
  C      -1.039802      4.530695     -1.826001
  C      -1.947253      2.111366     -2.124872
  O      -0.191951      5.391976     -2.146746
  C      -1.830997      1.681603     -0.680456
  C      -2.920902      1.730848      0.180136
  C      -2.803966      1.323983      1.496493
  C      -1.582984      0.859913      1.969372
  C      -0.484178      0.814936      1.117237
  C      -0.611275      1.226178     -0.194534
  O      -1.429705      0.447808      3.282122
  C      -2.081644     -0.784900      3.604704
  C      -1.343492     -1.916484      2.932119
  C      -0.270605     -2.503783      3.592111
  C       0.547011     -3.429298      2.965497
  C       0.332093     -3.764610      1.636469
  C      -0.714585     -3.183856      0.950156
  C      -1.558373     -2.281231      1.596653
  N      -2.644108     -1.771658      0.824100
  O      -2.460582     -1.589163     -0.372446
  O      -3.724167     -1.572616      1.370022
  C      -2.134007      6.022946     -0.222961
  N      -2.035901      4.782310     -0.951903
  H      -2.613405      4.017290     -0.641325
  H      -1.409219      6.717253     -0.644225
  H      -3.137010      6.435036     -0.324678
  H      -1.913230      5.868703      0.834177
  C       0.487319      2.035184     -4.059855
  O      -0.053894      0.934730     -4.073827
  C       1.702532      2.378611     -4.873059
  H       1.474311      3.196770     -5.551269
  H       2.514108      2.686623     -4.219080
  H       2.008050      1.508308     -5.445946
47
Coordinates from ORCA-job /home/esp/scriptDevelopment/drFrankenstein/11_PCY_CHARMM/04_torsion_scanning/torsion_NH1-CT1-CG321-CG2R61/scans_PCY_conformer_41/PCY_conformer_41_opt/orca_opt E -79.896017897650
  H      -1.990935     -0.871901      4.691020
  H      -0.060278     -2.213936      4.601830
  H      -3.665450      1.338973      2.152111
  H      -1.717899      1.256520     -2.763890
  H      -3.136503     -0.761911      3.326955
  H      -3.888013      2.049523     -0.183220
  H       0.455574      0.449839      1.501163
  H      -2.971641      2.429873     -2.330764
  H       0.977799     -4.455568      1.115729
  H       0.236882      1.169869     -0.854788
  H      -0.922392     -3.414537     -0.091533
  H       0.576206      3.961802     -3.336826
  H       1.377184     -3.864878      3.486683
  N       0.051429      3.080557     -3.292720
  C      -0.992851      3.209295     -2.431618
  C      -1.037985      4.527886     -1.823212
  C      -1.947803      2.109466     -2.122658
  O      -0.188646      5.385921     -2.144450
  C      -1.832313      1.678872     -0.678322
  C      -2.923935      1.724473      0.180434
  C      -2.807754      1.318074      1.496990
  C      -1.585983      0.857400      1.971349
  C      -0.485742      0.815656      1.121003
  C      -0.612007      1.227103     -0.190805
  O      -1.433379      0.446715      3.284259
  C      -2.080149     -0.788439      3.607637
  C      -1.341720     -1.916097      2.929487
  C      -0.262013     -2.499703      3.581586
  C       0.556421     -3.419341      2.947796
  C       0.334743     -3.752754      1.619546
  C      -0.719755     -3.177055      0.941377
  C      -1.564937     -2.280454      1.594817
  N      -2.660299     -1.779599      0.832929
  O      -2.484222     -1.577161     -0.361527
  O      -3.729940     -1.563677      1.392646
  C      -2.136446      6.028499     -0.229556
  N      -2.036051      4.785158     -0.952990
  H      -2.621162      4.024546     -0.645833
  H      -1.407615      6.719624     -0.648967
  H      -3.138419      6.441831     -0.339283
  H      -1.922241      5.876766      0.829553
  C       0.489869      2.030208     -4.054027
  O      -0.054474      0.932427     -4.070408
  C       1.710182      2.368831     -4.862419
  H       1.488556      3.188593     -5.541384
  H       2.520978      2.673135     -4.205142
  H       2.014137      1.497548     -5.434529
47
Coordinates from ORCA-job /home/esp/scriptDevelopment/drFrankenstein/11_PCY_CHARMM/04_torsion_scanning/torsion_NH1-CT1-CG321-CG2R61/scans_PCY_conformer_41/PCY_conformer_41_opt/orca_opt E -79.896079377240
  H      -1.988140     -0.872639      4.692662
  H      -0.062104     -2.219820      4.602579
  H      -3.665621      1.335975      2.154770
  H      -1.722174      1.256740     -2.762217
  H      -3.135347     -0.761767      3.329801
  H      -3.889569      2.047026     -0.180578
  H       0.455766      0.449723      1.501934
  H      -2.973421      2.431863     -2.327241
  H       0.979362     -4.451127      1.111006
  H       0.235804      1.170210     -0.853630
  H      -0.917774     -3.404025     -0.095950
  H       0.577131      3.958532     -3.334558
  H       1.375128     -3.869078      3.484709
  N       0.050742      3.078161     -3.289962
  C      -0.993226      3.208205     -2.429298
  C      -1.037285      4.527600     -1.821598
  C      -1.949902      2.109670     -2.120281
  O      -0.185959      5.383281     -2.142347
  C      -1.833731      1.677785     -0.676363
  C      -2.925187      1.722287      0.182625
  C      -2.808327      1.315516      1.499014
  C      -1.585943      0.855680      1.972885
  C      -0.486037      0.814560      1.122150
  C      -0.613046      1.226359     -0.189505
  O      -1.432546      0.446458      3.286009
  C      -2.078715     -0.788842      3.609495
  C      -1.340890     -1.915664      2.929376
  C      -0.262421     -2.502006      3.581036
  C       0.555907     -3.420669      2.945808
  C       0.335903     -3.749672      1.616257
  C      -0.716938     -3.170893      0.938335
  C      -1.562217     -2.275021      1.592819
  N      -2.653548     -1.768488      0.829645
  O      -2.480120     -1.585283     -0.368394
  O      -3.728415     -1.564692      1.383834
  C      -2.137268      6.033537     -0.233470
  N      -2.036615      4.788491     -0.953776
  H      -2.626562      4.030708     -0.648750
  H      -1.405414      6.722233     -0.651660
  H      -3.138029      6.448587     -0.347841
  H      -1.927276      5.883298      0.826717
  C       0.487930      2.027303     -4.051742
  O      -0.058296      0.930891     -4.069171
  C       1.709739      2.363914     -4.859003
  H       1.490628      3.184536     -5.537753
  H       2.520765      2.666199     -4.201066
  H       2.012268      1.492327     -5.431284
47
Coordinates from ORCA-job /home/esp/scriptDevelopment/drFrankenstein/11_PCY_CHARMM/04_torsion_scanning/torsion_NH1-CT1-CG321-CG2R61/scans_PCY_conformer_41/PCY_conformer_41_opt/orca_opt E -79.896084126990
  H      -1.992279     -0.867624      4.691548
  H      -0.066587     -2.214287      4.605671
  H      -3.668327      1.340773      2.150859
  H      -1.723970      1.254814     -2.766179
  H      -3.138480     -0.759405      3.327617
  H      -3.890693      2.050026     -0.185301
  H       0.452171      0.449410      1.500054
  H      -2.974159      2.430966     -2.331445
  H       0.984279     -4.445268      1.116742
  H       0.233639      1.167547     -0.856238
  H      -0.912016     -3.400836     -0.093910
  H       0.577505      3.957137     -3.335965
  H       1.374604     -3.862445      3.491246
  N       0.049962      3.077284     -3.293345
  C      -0.994075      3.206269     -2.432831
  C      -1.036874      4.523890     -1.820884
  C      -1.951032      2.108073     -2.124474
  O      -0.184257      5.380087     -2.137826
  C      -1.835482      1.677357     -0.680206
  C      -2.927075      1.723957      0.178341
  C      -2.811060      1.318440      1.495162
  C      -1.589217      0.858052      1.970070
  C      -0.489150      0.814754      1.119673
  C      -0.615409      1.225218     -0.192523
  O      -1.436774      0.450552      3.283958
  C      -2.082086     -0.785300      3.608215
  C      -1.342440     -1.912174      2.930088
  C      -0.264527     -2.496998      3.583884
  C       0.556102     -3.415046      2.950612
  C       0.339067     -3.744576      1.620656
  C      -0.713164     -3.167219      0.940655
  C      -1.560984     -2.272031      1.593093
  N      -2.651180     -1.766939      0.827506
  O      -2.476231     -1.586331     -0.371025
  O      -3.727207     -1.562209      1.379666
  C      -2.130733      6.020847     -0.219939
  N      -2.032077      4.779613     -0.947234
  H      -2.622908      4.020970     -0.646111
  H      -1.400082      6.711883     -0.636386
  H      -3.131676      6.436421     -0.329222
  H      -1.917866      5.864766      0.838705
  C       0.486343      2.027877     -4.058048
  O      -0.061918      0.932333     -4.080333
  C       1.708186      2.366243     -4.864092
  H       1.490018      3.189518     -5.539736
  H       2.519498      2.665244     -4.205258
  H       2.009631      1.496343     -5.439482
47
Coordinates from ORCA-job /home/esp/scriptDevelopment/drFrankenstein/11_PCY_CHARMM/04_torsion_scanning/torsion_NH1-CT1-CG321-CG2R61/scans_PCY_conformer_41/PCY_conformer_41_opt/orca_opt E -79.896087195340
  H      -1.992032     -0.869403      4.691697
  H      -0.065711     -2.214501      4.604045
  H      -3.670138      1.340238      2.151498
  H      -1.727007      1.254754     -2.765639
  H      -3.139291     -0.761577      3.328456
  H      -3.892246      2.049746     -0.184835
  H       0.450369      0.449078      1.501121
  H      -2.975067      2.432720     -2.330143
  H       0.988755     -4.438239      1.111571
  H       0.232275      1.167363     -0.854994
  H      -0.909901     -3.395447     -0.096975
  H       0.579871      3.953546     -3.333718
  H       1.378108     -3.858790      3.487206
  N       0.050063      3.075024     -3.291755
  C      -0.993888      3.205127     -2.431750
  C      -1.035027      4.522787     -1.819042
  C      -1.952376      2.108227     -2.123620
  O      -0.181493      5.378014     -2.135767
  C      -1.836915      1.677213     -0.679366
  C      -2.928716      1.723633      0.178943
  C      -2.812919      1.318102      1.495754
  C      -1.591084      0.857844      1.970942
  C      -0.490928      0.814422      1.120697
  C      -0.616983      1.224942     -0.191550
  O      -1.439144      0.450535      3.284958
  C      -2.082736     -0.786574      3.608471
  C      -1.341953     -1.911839      2.928988
  C      -0.263146     -2.495947      3.581817
  C       0.558967     -3.411799      2.947246
  C       0.342387     -3.739536      1.616749
  C      -0.710941     -3.163022      0.937861
  C      -1.560410     -2.270050      1.591431
  N      -2.651646     -1.766162      0.826825
  O      -2.478081     -1.586115     -0.372153
  O      -3.727228     -1.561231      1.380017
  C      -2.129907      6.021776     -0.220511
  N      -2.030318      4.779603     -0.946087
  H      -2.625583      4.023180     -0.648315
  H      -1.397054      6.711494     -0.635283
  H      -3.129963      6.438486     -0.333359
  H      -1.920651      5.866297      0.838902
  C       0.484418      2.025372     -4.057732
  O      -0.066592      0.931372     -4.082015
  C       1.708595      2.361650     -4.861050
  H       1.494095      3.186526     -5.535877
  H       2.519643      2.657433     -4.200466
  H       2.008536      1.491697     -5.437164
47
Coordinates from ORCA-job /home/esp/scriptDevelopment/drFrankenstein/11_PCY_CHARMM/04_torsion_scanning/torsion_NH1-CT1-CG321-CG2R61/scans_PCY_conformer_41/PCY_conformer_41_opt/orca_opt E -79.896089366520
  H      -1.993251     -0.874136      4.691360
  H      -0.064861     -2.215241      4.601617
  H      -3.673600      1.339190      2.153099
  H      -1.731443      1.255264     -2.763712
  H      -3.141095     -0.766514      3.328493
  H      -3.895089      2.049608     -0.183356
  H       0.447016      0.448592      1.503658
  H      -2.976587      2.435780     -2.327623
  H       0.997161     -4.427739      1.104255
  H       0.229920      1.167816     -0.851954
  H      -0.904857     -3.388009     -0.101910
  H       0.583444      3.947897     -3.330166
  H       1.384001     -3.853099      3.481711
  N       0.050448      3.071385     -3.288489
  C      -0.993601      3.203912     -2.429337
  C      -1.032073      4.522189     -1.816757
  C      -1.954511      2.109082     -2.121369
  O      -0.175779      5.374840     -2.132222
  C      -1.839421      1.677618     -0.677136
  C      -2.931644      1.723554      0.180736
  C      -2.816340      1.317562      1.497395
  C      -1.594649      0.857218      1.973003
  C      -0.494218      0.814046      1.123160
  C      -0.619760      1.225067     -0.189031
  O      -1.443760      0.449506      3.287031
  C      -2.084471     -0.789845      3.608276
  C      -1.341094     -1.912145      2.926771
  C      -0.261041     -2.494853      3.578627
  C       0.563894     -3.407075      2.942441
  C       0.348628     -3.732216      1.611052
  C      -0.706264     -3.157296      0.933419
  C      -1.558659     -2.267980      1.588358
  N      -2.651440     -1.766277      0.824575
  O      -2.478991     -1.585988     -0.374634
  O      -3.726850     -1.562665      1.378722
  C      -2.127775      6.025664     -0.222973
  N      -2.027456      4.781478     -0.944976
  H      -2.630340      4.029162     -0.652530
  H      -1.390476      6.712271     -0.635016
  H      -3.125899      6.445272     -0.342323
  H      -1.925159      5.871710      0.837937
  C       0.481274      2.020767     -4.055764
  O      -0.074853      0.929657     -4.083014
  C       1.707966      2.353721     -4.856658
  H       1.498102      3.180817     -5.530234
  H       2.519388      2.644823     -4.194447
  H       2.005075      1.483577     -5.434035
47
Coordinates from ORCA-job /home/esp/scriptDevelopment/drFrankenstein/11_PCY_CHARMM/04_torsion_scanning/torsion_NH1-CT1-CG321-CG2R61/scans_PCY_conformer_41/PCY_conformer_41_opt/orca_opt E -79.896089932980
  H      -1.994055     -0.875465      4.690945
  H      -0.064991     -2.215352      4.601263
  H      -3.674147      1.340033      2.153814
  H      -1.732477      1.255473     -2.763112
  H      -3.141480     -0.767641      3.327809
  H      -3.895575      2.050739     -0.182632
  H       0.446098      0.448174      1.504008
  H      -2.977148      2.436374     -2.327056
  H       0.999001     -4.426388      1.103556
  H       0.229127      1.167656     -0.851429
  H      -0.903072     -3.386994     -0.102845
  H       0.583908      3.946768     -3.329602
  H       1.384925     -3.852257      3.481332
  N       0.050178      3.070747     -3.288213
  C      -0.993872      3.203834     -2.428974
  C      -1.031531      4.522131     -1.816378
  C      -1.955144      2.109418     -2.120805
  O      -0.175001      5.374479     -2.132013
  C      -1.840076      1.678068     -0.676558
  C      -2.932226      1.724329      0.181396
  C      -2.816978      1.318184      1.497990
  C      -1.595439      0.857365      1.973522
  C      -0.495068      0.813964      1.123636
  C      -0.620541      1.225139     -0.188512
  O      -1.444850      0.449334      3.287520
  C      -2.084921     -0.790582      3.607872
  C      -1.340780     -1.912212      2.926083
  C      -0.260725     -2.494727      3.578118
  C       0.564801     -3.406422      2.941936
  C       0.350064     -3.731258      1.610371
  C      -0.704834     -3.156513      0.932609
  C      -1.557750     -2.267705      1.587523
  N      -2.650483     -1.766172      0.823414
  O      -2.477536     -1.585256     -0.375597
  O      -3.726209     -1.563374      1.377212
  C      -2.127225      6.026319     -0.223331
  N      -2.026402      4.781489     -0.944121
  H      -2.631064      4.030081     -0.653125
  H      -1.388736      6.712105     -0.634590
  H      -3.124830      6.446670     -0.344634
  H      -1.926621      5.873011      0.838052
  C       0.479884      2.020028     -4.056044
  O      -0.077161      0.929387     -4.083535
  C       1.707631      2.351925     -4.855736
  H       1.499186      3.179404     -5.529271
  H       2.518753      2.641993     -4.192692
  H       2.004403      1.481670     -5.433143
