47
Coordinates from ORCA-job /home/esp/scriptDevelopment/drFrankenstein/11_PCY_CHARMM/01_termini_capping/geometry_optimisation/orca_opt E -79.886272773800
  H           0.54264206036309     -2.03013518525143     -1.38198861155663
  H          -1.39845163713779     -3.35520043494214      1.22436378981622
  H          -2.40313163913923     -0.10382941165482      1.41006491504306
  H          -0.76640784284506      4.45081053169252      1.61662246295920
  H           1.37261176821318     -1.80793142953130      0.16483982649638
  H          -2.49047384681107      2.35661682990439      1.59353850281778
  H           1.15532256638679      0.20954903630054     -0.93680467036224
  H           0.10721614498161      4.60597710080758      0.08675877237534
  H          -0.15508284419347     -7.42484370618674      0.80100695975876
  H           1.06461946281166      2.63501293172435     -0.75124140268651
  H           1.70677709089615     -6.67271006491498     -0.65326770569203
  H          -2.26561425999113      3.13009826610459     -1.26065994569629
  H          -1.70253150135488     -5.73844635803650      1.75339267166907
  N          -2.54025871884140      4.10332797376700     -1.14698082268806
  C          -2.00023709918320      4.75554229341080     -0.08497153999956
  C          -2.72333427415167      5.88928549750794      0.49020221248089
  C          -0.78236788397717      4.17511188063713      0.56015767261648
  O          -3.95597907808225      5.98751339415350      0.40754999639525
  C          -0.71520599361803      2.67136934844396      0.43748441148710
  C          -1.69172314297137      1.88350052063805      1.04229353840822
  C          -1.64920322851282      0.50932581139536      0.94422211148948
  C          -0.61744240506895     -0.11501881529758      0.24107021995328
  C           0.35675815381461      0.66474404461671     -0.37301348605043
  C           0.30043376616862      2.04513434806458     -0.26854338629836
  O          -0.67153445170009     -1.47809505242428      0.19813771089362
  C           0.44767022738616     -2.18108201325083     -0.29701668272289
  C           0.31049344503326     -3.64650759133032      0.00269770323023
  C          -0.72049856465030     -4.08946285665822      0.82188693744151
  C          -0.89187007933835     -5.43099996750873      1.11274278775453
  C          -0.02577572204354     -6.37795046080551      0.58149128895243
  C           1.00877366566826     -5.96818280184860     -0.22842199088342
  C           1.19112588060328     -4.61086604117302     -0.51816833747960
  N           2.28946997905028     -4.27234124113807     -1.33658639378347
  O           2.91510024888588     -5.17727971879211     -1.89822935166686
  O           2.59618934874792     -3.08458058187075     -1.48890736684583
  C          -2.55990742442840      7.93315400462657      1.81999530711654
  N          -1.97248397447573      6.78796595507231      1.16472725231688
  H          -0.96887255281221      6.71438691076661      1.16441856680255
  H          -3.48674120036691      8.18858129981458      1.30654265982723
  H          -2.79786076058033      7.70149171381320      2.86055510032981
  H          -1.87152422769030      8.77189267269599      1.77995624199762
  C          -3.30830001387605      4.67786106781468     -2.14322338045661
  O          -3.37182913684056      5.88876588380369     -2.28649949517209
  C          -3.97395661876923      3.69027518779090     -3.05273892652691
  H          -5.04621757675139      3.87179606137187     -3.02379166697133
  H          -3.64355373363969      3.86847387989535     -4.07361260515148
  H          -3.76883237516820      2.66489928598114     -2.76605185173883
