47
Coordinates from ORCA-job /home/esp/scriptDevelopment/drFrankenstein/11_PCY_CHARMM/01_termini_capping/geometry_optimisation/orca_opt E -79.798972220630
  H       1.359000     -1.916000     -0.687000
  H      -1.827000     -3.675000     -0.100000
  H      -2.550000     -0.380000      0.556000
  H      -0.597000      4.155000      1.446000
  H       0.581000     -1.780000      0.936000
  H      -2.597000      2.006000      1.179000
  H       1.219000      0.215000     -1.441000
  H      -0.013000      4.460000     -0.188000
  H      -0.009000     -7.551000      0.180000
  H       1.168000      2.593000     -0.871000
  H       2.241000     -6.517000      0.264000
  H      -3.025000      3.054000     -0.983000
  H      -2.030000     -6.123000      0.025000
  N      -3.071000      4.065000     -0.897000
  C      -2.102000      4.670000     -0.009000
  C      -2.412000      6.013000      0.560000
  C      -0.818000      3.981000      0.386000
  O      -3.555000      6.447000      0.604000
  C      -0.749000      2.490000      0.145000
  C      -1.760000      1.625000      0.597000
  C      -1.740000      0.277000      0.253000
  C      -0.663000     -0.226000     -0.465000
  C       0.380000      0.605000     -0.873000
  C       0.344000      1.958000     -0.555000
  O      -0.658000     -1.568000     -0.730000
  C       0.476000     -2.163000     -0.089000
  C       0.342000     -3.664000     -0.012000
  C      -0.922000     -4.277000     -0.027000
  C      -1.043000     -5.667000      0.044000
  C       0.094000     -6.470000      0.135000
  C       1.358000     -5.887000      0.179000
  C       1.473000     -4.493000      0.125000
  N       2.814000     -3.921000      0.236000
  O       3.709000     -4.436000     -0.447000
  O       2.967000     -2.965000      1.008000
  C      -1.645000      8.291000      1.698000
  N      -1.521000      6.971000      1.115000
  H      -0.587000      6.547000      1.048000
  H      -2.382000      8.920000      1.158000
  H      -1.964000      8.183000      2.773000
  H      -0.655000      8.788000      1.737000
  C      -4.102000      4.491000     -1.710000
  O      -4.171000      5.692000     -1.619000
  C      -5.059000      3.746000     -2.605000
  H      -6.082000      3.928000     -2.274000
  H      -4.942000      4.096000     -3.631000
  H      -4.846000      2.679000     -2.558000
47
Coordinates from ORCA-job /home/esp/scriptDevelopment/drFrankenstein/11_PCY_CHARMM/01_termini_capping/geometry_optimisation/orca_opt E -79.845096698880
  H       1.406157     -1.896187     -0.665946
  H      -1.813531     -3.551623     -0.103618
  H      -2.509079     -0.307951      0.598907
  H      -0.638154      4.244260      1.451513
  H       0.639940     -1.766234      0.957064
  H      -2.585300      2.079247      1.190472
  H       1.231094      0.314442     -1.408386
  H      -0.055150      4.550086     -0.181490
  H      -0.147948     -7.482475      0.098969
  H       1.141184      2.689910     -0.861268
  H       2.128455     -6.527254      0.189941
  H      -2.925511      3.046618     -0.895565
  H      -2.109749     -5.984191     -0.022004
  N      -3.035898      4.060720     -0.852257
  C      -2.139570      4.706772      0.003489
  C      -2.480358      6.018378      0.562297
  C      -0.849516      4.056943      0.393428
  O      -3.649821      6.421698      0.633177
  C      -0.758103      2.569625      0.155759
  C      -1.750628      1.701429      0.612301
  C      -1.712506      0.353400      0.287199
  C      -0.633222     -0.149885     -0.427811
  C       0.390937      0.695372     -0.843798
  C       0.332559      2.046858     -0.539235
  O      -0.612218     -1.503930     -0.687063
  C       0.516739     -2.130954     -0.070983
  C       0.334176     -3.625197     -0.022066
  C      -0.940566     -4.188870     -0.044025
  C      -1.111490     -5.567598      0.001471
  C      -0.009140     -6.410097      0.073126
  C       1.267888     -5.874204      0.121364
  C       1.429355     -4.491392      0.092285
  N       2.776015     -3.975423      0.203565
  O       3.647127     -4.508945     -0.479738
  O       2.970840     -3.040524      0.978146
  C      -1.639406      8.209424      1.670525
  N      -1.533516      6.908396      1.076880
  H      -0.608341      6.488120      0.983159
  H      -2.384344      8.827764      1.154661
  H      -1.929361      8.103712      2.738380
  H      -0.657934      8.696454      1.668235
  C      -4.069426      4.438395     -1.701011
  O      -4.277040      5.648594     -1.761406
  C      -4.902018      3.507995     -2.526676
  H      -5.945004      3.620762     -2.241848
  H      -4.782583      3.767903     -3.575178
  H      -4.588034      2.476657     -2.368937
47
Coordinates from ORCA-job /home/esp/scriptDevelopment/drFrankenstein/11_PCY_CHARMM/01_termini_capping/geometry_optimisation/orca_opt E -79.866352783120
  H       1.458618     -1.894316     -0.660864
  H      -1.789705     -3.436142     -0.068403
  H      -2.451299     -0.259992      0.672758
  H      -0.658389      4.314379      1.452129
  H       0.732895     -1.765441      0.971748
  H      -2.556055      2.135438      1.216913
  H       1.247126      0.373288     -1.376105
  H      -0.073586      4.615673     -0.181748
  H      -0.292866     -7.430750      0.046380
  H       1.124860      2.755007     -0.870746
  H       2.017947     -6.561230      0.100672
  H      -2.829366      3.057953     -0.854235
  H      -2.190845     -5.853717     -0.014464
  N      -2.991549      4.066607     -0.821683
  C      -2.164430      4.734977      0.006293
  C      -2.554553      6.016426      0.543724
  C      -0.861412      4.114672      0.395125
  O      -3.746450      6.381417      0.609612
  C      -0.751816      2.627986      0.163661
  C      -1.727344      1.757081      0.636055
  C      -1.670879      0.405960      0.341370
  C      -0.594106     -0.101541     -0.375040
  C       0.409435      0.753366     -0.812256
  C       0.332137      2.106481     -0.531561
  O      -0.559962     -1.464206     -0.623885
  C       0.571932     -2.117260     -0.054797
  C       0.336629     -3.603348     -0.025555
  C      -0.952585     -4.114153     -0.032594
  C      -1.179076     -5.480871     -0.004545
  C      -0.114391     -6.367609      0.032966
  C       1.179403     -5.883579      0.061177
  C       1.395501     -4.511469      0.049148
  N       2.751100     -4.058659      0.133100
  O       3.586400     -4.624472     -0.557646
  O       3.006769     -3.136546      0.895823
  C      -1.727952      8.134235      1.616851
  N      -1.581346      6.842734      1.022051
  H      -0.653515      6.451878      0.930441
  H      -2.489890      8.712092      1.095644
  H      -2.018947      8.036707      2.671877
  H      -0.771145      8.648392      1.590214
  C      -4.010502      4.444567     -1.665417
  O      -4.303646      5.637367     -1.792541
  C      -4.728011      3.387022     -2.434064
  H      -5.781620      3.428699     -2.176434
  H      -4.611143      3.595754     -3.492857
  H      -4.334368      2.396146     -2.212292
47
Coordinates from ORCA-job /home/esp/scriptDevelopment/drFrankenstein/11_PCY_CHARMM/01_termini_capping/geometry_optimisation/orca_opt E -79.874058936220
  H       1.435079     -1.905587     -0.737672
  H      -1.773746     -3.377783      0.116295
  H      -2.404092     -0.225153      0.852702
  H      -0.670147      4.354648      1.446059
  H       0.871274     -1.764789      0.946006
  H      -2.527093      2.192690      1.293675
  H       1.197790      0.364351     -1.359986
  H      -0.065900      4.641028     -0.186575
  H      -0.372000     -7.412517      0.132029
  H       1.061887      2.767309     -0.951182
  H       1.956058     -6.589991     -0.032480
  H      -2.774480      3.075712     -0.884671
  H      -2.232048     -5.789128      0.222578
  N      -2.955478      4.082305     -0.868922
  C      -2.169402      4.772581     -0.012943
  C      -2.604474      6.031986      0.560822
  C      -0.862079      4.151209      0.387696
  O      -3.808942      6.318136      0.719208
  C      -0.764028      2.662279      0.165395
  C      -1.722872      1.800358      0.689050
  C      -1.649940      0.438207      0.462188
  C      -0.596509     -0.088284     -0.275634
  C       0.377876      0.761211     -0.782571
  C       0.292361      2.123313     -0.555894
  O      -0.572938     -1.455230     -0.503848
  C       0.600368     -2.118662     -0.056984
  C       0.337216     -3.599612     -0.002869
  C      -0.958913     -4.081524      0.093618
  C      -1.214930     -5.441684      0.145502
  C      -0.172917     -6.354445      0.097112
  C       1.128210     -5.900181      0.005104
  C       1.377353     -4.532907     -0.031625
  N       2.739239     -4.117625     -0.090758
  O       3.507784     -4.761405     -0.792677
  O       3.081424     -3.142581      0.567099
  C      -1.856835      8.082614      1.705101
  N      -1.624729      6.839345      1.025022
  H      -0.676736      6.533797      0.884240
  H      -2.691790      8.603417      1.240221
  H      -2.102747      7.914610      2.757104
  H      -0.958499      8.688424      1.650225
  C      -3.893532      4.481497     -1.786987
  O      -4.119238      5.658502     -2.062410
  C      -4.555153      3.344166     -2.501888
  H      -5.627869      3.417980     -2.346559
  H      -4.355554      3.448281     -3.564893
  H      -4.200310      2.376132     -2.158026
47
Coordinates from ORCA-job /home/esp/scriptDevelopment/drFrankenstein/11_PCY_CHARMM/01_termini_capping/geometry_optimisation/orca_opt E -79.877962505730
  H       1.370241     -1.945335     -0.858970
  H      -1.727392     -3.367177      0.349598
  H      -2.369543     -0.209745      1.018790
  H      -0.681806      4.351873      1.472843
  H       1.031954     -1.787255      0.872686
  H      -2.501986      2.225464      1.362023
  H       1.169686      0.311924     -1.302944
  H      -0.014952      4.622640     -0.140672
  H      -0.387668     -7.426134      0.291176
  H       1.029453      2.731161     -0.983312
  H       1.917378     -6.635754     -0.159831
  H      -2.643530      3.110642     -1.036332
  H      -2.207187     -5.772325      0.551606
  N      -2.863123      4.105430     -0.957435
  C      -2.127259      4.777068     -0.034862
  C      -2.629851      6.004070      0.566606
  C      -0.835927      4.148087      0.409228
  O      -3.846287      6.265469      0.612154
  C      -0.757112      2.658247      0.194439
  C      -1.711833      1.812771      0.753180
  C      -1.630900      0.443709      0.584761
  C      -0.595722     -0.106643     -0.162261
  C       0.362098      0.728920     -0.722750
  C       0.275830      2.097596     -0.543086
  O      -0.592438     -1.475440     -0.367311
  C       0.622421     -2.147233     -0.080658
  C       0.352567     -3.624103      0.021423
  C      -0.932639     -4.087522      0.258365
  C      -1.200004     -5.442239      0.358575
  C      -0.181980     -6.372035      0.213544
  C       1.104589     -5.938556     -0.035221
  C       1.369919     -4.574885     -0.122667
  N       2.715471     -4.189382     -0.364993
  O       3.422651     -4.941223     -1.027322
  O       3.118108     -3.125998      0.098006
  C      -2.041002      8.050538      1.748648
  N      -1.686207      6.828121      1.071935
  H      -0.713686      6.596245      0.976143
  H      -2.901278      8.492881      1.249213
  H      -2.318689      7.862190      2.786146
  H      -1.200311      8.734385      1.712673
  C      -3.772019      4.585021     -1.869034
  O      -3.995964      5.771381     -2.077442
  C      -4.453899      3.470465     -2.617555
  H      -5.526898      3.558949     -2.465119
  H      -4.263170      3.605275     -3.679699
  H      -4.122104      2.485459     -2.308286
47
Coordinates from ORCA-job /home/esp/scriptDevelopment/drFrankenstein/11_PCY_CHARMM/01_termini_capping/geometry_optimisation/orca_opt E -79.881123888130
  H       1.215040     -1.979516     -1.044129
  H      -1.652734     -3.344554      0.636323
  H      -2.375649     -0.167155      1.130899
  H      -0.684549      4.372883      1.470800
  H       1.184138     -1.779442      0.708228
  H      -2.494215      2.282908      1.385062
  H       1.154173      0.252026     -1.228812
  H       0.047115      4.608795     -0.121905
  H      -0.352282     -7.420013      0.541677
  H       1.031533      2.684211     -0.991253
  H       1.869418     -6.664783     -0.263828
  H      -2.527472      3.134473     -1.167409
  H      -2.113216     -5.738680      0.990223
  N      -2.765042      4.117807     -1.057893
  C      -2.068008      4.780874     -0.090660
  C      -2.638864      5.977779      0.521241
  C      -0.798089      4.154195      0.406202
  O      -3.862684      6.163629      0.554577
  C      -0.739033      2.660766      0.214849
  C      -1.703152      1.841299      0.797839
  C      -1.634179      0.467645      0.673198
  C      -0.609907     -0.114797     -0.065756
  C       0.351752      0.695066     -0.660188
  C       0.279141      2.069516     -0.521165
  O      -0.634292     -1.483110     -0.230912
  C       0.608242     -2.159128     -0.147542
  C       0.361275     -3.631016      0.036712
  C      -0.882624     -4.077716      0.463190
  C      -1.140504     -5.425606      0.646451
  C      -0.156724     -6.370820      0.394235
  C       1.082282     -5.958691     -0.049857
  C       1.345425     -4.599265     -0.223411
  N       2.643206     -4.250827     -0.677709
  O       3.308177     -5.112338     -1.251911
  O       3.070464     -3.115410     -0.464736
  C      -2.227952      7.959171      1.865945
  N      -1.755941      6.804374      1.132990
  H      -0.764796      6.645344      1.081910
  H      -3.106551      8.356176      1.355035
  H      -2.529228      7.685997      2.878832
  H      -1.448300      8.713951      1.895416
  C      -3.635386      4.659613     -1.977556
  O      -3.777396      5.855765     -2.155581
  C      -4.363029      3.605456     -2.781967
  H      -5.433701      3.754176     -2.656677
  H      -4.145861      3.762007     -3.837233
  H      -4.102023      2.593961     -2.497745
47
Coordinates from ORCA-job /home/esp/scriptDevelopment/drFrankenstein/11_PCY_CHARMM/01_termini_capping/geometry_optimisation/orca_opt E -79.883512239620
  H       0.897484     -2.046175     -1.303747
  H      -1.498342     -3.329790      0.994701
  H      -2.435803     -0.156869      1.210578
  H      -0.742473      4.362316      1.558031
  H       1.308562     -1.772894      0.385541
  H      -2.531125      2.300551      1.431776
  H       1.154795      0.195916     -1.073252
  H       0.092290      4.579763      0.013213
  H      -0.200804     -7.406829      0.856646
  H       1.054388      2.631206     -0.865235
  H       1.814527     -6.691341     -0.402802
  H      -2.402104      3.147083     -1.246589
  H      -1.859803     -5.702072      1.553374
  N      -2.641733      4.124436     -1.120707
  C      -2.019043      4.761714     -0.085905
  C      -2.672763      5.920706      0.522670
  C      -0.787971      4.136609      0.490715
  O      -3.897267      6.059373      0.482994
  C      -0.739398      2.640458      0.308190
  C      -1.726050      1.839291      0.879300
  C      -1.676503      0.464971      0.763634
  C      -0.643723     -0.138896      0.051783
  C       0.341496      0.653064     -0.531936
  C       0.285450      2.029777     -0.403533
  O      -0.691078     -1.502973     -0.074529
  C       0.533668     -2.184369     -0.278167
  C       0.358382     -3.645594      0.019853
  C      -0.771970     -4.072823      0.708248
  C      -0.976145     -5.408369      1.008594
  C      -0.050923     -6.366582      0.616794
  C       1.071865     -5.977743     -0.079975
  C       1.288241     -4.627184     -0.377222
  N       2.472327     -4.317276     -1.088453
  O       3.074743     -5.236741     -1.650920
  O       2.823211     -3.138739     -1.209573
  C      -2.442955      7.917441      1.888646
  N      -1.867692      6.786612      1.187440
  H      -0.866150      6.695952      1.184314
  H      -3.338472      8.234349      1.348807
  H      -2.746640      7.632442      2.899008
  H      -1.727855      8.734353      1.923124
  C      -3.423355      4.736912     -2.080103
  O      -3.448896      5.940562     -2.224442
  C      -4.176872      3.774056     -2.967717
  H      -5.237995      4.008256     -2.904734
  H      -3.884081      3.944452     -4.002573
  H      -4.017448      2.737641     -2.699859
47
Coordinates from ORCA-job /home/esp/scriptDevelopment/drFrankenstein/11_PCY_CHARMM/01_termini_capping/geometry_optimisation/orca_opt E -79.883908550090
  H       0.447564     -2.121516     -1.497869
  H      -1.284108     -3.313557      1.327301
  H      -2.492070     -0.144087      1.283438
  H      -0.809385      4.370980      1.650070
  H       1.316781     -1.777471     -0.005650
  H      -2.563125      2.317184      1.492657
  H       1.171844      0.160457     -0.896649
  H       0.124623      4.563160      0.159931
  H       0.019003     -7.382708      1.084232
  H       1.091040      2.593111     -0.698614
  H       1.719033     -6.703150     -0.590208
  H      -2.257449      3.151468     -1.304512
  H      -1.483403     -5.659258      2.047536
  N      -2.507473      4.123918     -1.168734
  C      -1.973685      4.740533     -0.076939
  C      -2.708910      5.866052      0.503560
  C      -0.785750      4.128319      0.586103
  O      -3.928773      5.972783      0.376281
  C      -0.735885      2.627709      0.421670
  C      -1.743790      1.840957      0.974561
  C      -1.712985      0.467466      0.857006
  C      -0.665072     -0.153995      0.179280
  C       0.345505      0.624214     -0.381844
  C       0.302761      2.002388     -0.255885
  O      -0.734581     -1.511858      0.096864
  C       0.387235     -2.211019     -0.405817
  C       0.318991     -3.657614     -0.017707
  C      -0.627095     -4.064122      0.918744
  C      -0.740733     -5.384588      1.314411
  C       0.096676     -6.352720      0.774679
  C       1.042153     -5.984509     -0.153853
  C       1.169249     -4.646257     -0.556681
  N       2.180506     -4.366803     -1.501581
  O       2.841921     -5.309954     -1.956527
  O       2.495166     -3.193515     -1.744333
  C      -2.636714      7.886698      1.862720
  N      -1.987913      6.763217      1.217134
  H      -0.984376      6.715809      1.269162
  H      -3.531145      8.141131      1.289187
  H      -2.949822      7.613951      2.874543
  H      -1.965353      8.739903      1.894106
  C      -3.213431      4.782703     -2.160440
  O      -3.174110      5.990871     -2.250507
  C      -3.961294      3.898895     -3.117730
  H      -5.010856      4.186032     -3.096085
  H      -3.607684      4.087418     -4.129436
  H      -3.865083      2.848370     -2.871578
47
Coordinates from ORCA-job /home/esp/scriptDevelopment/drFrankenstein/11_PCY_CHARMM/01_termini_capping/geometry_optimisation/orca_opt E -79.885801290620
  H       0.477888     -2.092696     -1.453522
  H      -1.324548     -3.326905      1.310477
  H      -2.456684     -0.117300      1.322112
  H      -0.791933      4.417985      1.619115
  H       1.340252     -1.789256      0.057114
  H      -2.529610      2.343098      1.522863
  H       1.171511      0.186359     -0.916948
  H       0.124221      4.587487      0.116105
  H      -0.047420     -7.397043      0.996325
  H       1.090022      2.614944     -0.721953
  H       1.709908     -6.687421     -0.603527
  H      -2.235491      3.154380     -1.323025
  H      -1.562449     -5.687732      1.962490
  N      -2.504918      4.125381     -1.190006
  C      -1.976367      4.754316     -0.106660
  C      -2.708390      5.885004      0.464457
  C      -0.780271      4.156079      0.558915
  O      -3.934870      5.988518      0.351168
  C      -0.721607      2.652988      0.419113
  C      -1.718510      1.867221      0.992048
  C      -1.685443      0.493435      0.881714
  C      -0.642110     -0.131336      0.198212
  C       0.356556      0.646522     -0.381665
  C       0.309971      2.025687     -0.264317
  O      -0.707784     -1.492041      0.135538
  C       0.409207     -2.198916     -0.362022
  C       0.311213     -3.651680      0.000839
  C      -0.662134     -4.071254      0.900718
  C      -0.796344     -5.400075      1.260126
  C       0.049915     -6.359908      0.719984
  C       1.026550     -5.974535     -0.169104
  C       1.171768     -4.628568     -0.531510
  N       2.212778     -4.316532     -1.431308
  O       2.837744     -5.240125     -1.967010
  O       2.491940     -3.133146     -1.662508
  C      -2.608185      7.866039      1.883673
  N      -1.984385      6.748542      1.210617
  H      -0.982923      6.672793      1.266816
  H      -3.495542      8.156393      1.319672
  H      -2.922829      7.578817      2.889774
  H      -1.915494      8.699964      1.936287
  C      -3.249954      4.746499     -2.176879
  O      -3.291265      5.960234     -2.268079
  C      -3.963024      3.813505     -3.107581
  H      -5.026642      4.038823     -3.064381
  H      -3.637206      4.009586     -4.126545
  H      -3.799113      2.772870     -2.851721
47
Coordinates from ORCA-job /home/esp/scriptDevelopment/drFrankenstein/11_PCY_CHARMM/01_termini_capping/geometry_optimisation/orca_opt E -79.886272773800
  H       0.542642     -2.030135     -1.381989
  H      -1.398452     -3.355200      1.224364
  H      -2.403132     -0.103829      1.410065
  H      -0.766408      4.450811      1.616622
  H       1.372612     -1.807931      0.164840
  H      -2.490474      2.356617      1.593539
  H       1.155323      0.209549     -0.936805
  H       0.107216      4.605977      0.086759
  H      -0.155083     -7.424844      0.801007
  H       1.064619      2.635013     -0.751241
  H       1.706777     -6.672710     -0.653268
  H      -2.265614      3.130098     -1.260660
  H      -1.702532     -5.738446      1.753393
  N      -2.540259      4.103328     -1.146981
  C      -2.000237      4.755542     -0.084972
  C      -2.723334      5.889285      0.490202
  C      -0.782368      4.175112      0.560158
  O      -3.955979      5.987513      0.407550
  C      -0.715206      2.671369      0.437484
  C      -1.691723      1.883501      1.042294
  C      -1.649203      0.509326      0.944222
  C      -0.617442     -0.115019      0.241070
  C       0.356758      0.664744     -0.373013
  C       0.300434      2.045134     -0.268543
  O      -0.671534     -1.478095      0.198138
  C       0.447670     -2.181082     -0.297017
  C       0.310493     -3.646508      0.002698
  C      -0.720499     -4.089463      0.821887
  C      -0.891870     -5.431000      1.112743
  C      -0.025776     -6.377950      0.581491
  C       1.008774     -5.968183     -0.228422
  C       1.191126     -4.610866     -0.518168
  N       2.289470     -4.272341     -1.336586
  O       2.915100     -5.177280     -1.898229
  O       2.596189     -3.084581     -1.488907
  C      -2.559907      7.933154      1.819995
  N      -1.972484      6.787966      1.164727
  H      -0.968873      6.714387      1.164419
  H      -3.486741      8.188581      1.306543
  H      -2.797861      7.701492      2.860555
  H      -1.871524      8.771893      1.779956
  C      -3.308300      4.677861     -2.143223
  O      -3.371829      5.888766     -2.286499
  C      -3.973957      3.690275     -3.052739
  H      -5.046218      3.871796     -3.023792
  H      -3.643554      3.868474     -4.073613
  H      -3.768832      2.664899     -2.766052
