47
Coordinates from ORCA-job /home/esp/scriptDevelopment/drFrankenstein/11_PCY_CHARMM/04_torsion_scanning/torsion_NH1-CT1-CG321-CG2R61/scans_PCY_conformer_26/PCY_conformer_26_opt/orca_opt E -79.899503004280
  H          -1.67082943020204     -0.94690409789518      4.43757929393849
  H          -0.92296071306533     -3.04981381581720      3.78352440570465
  H          -1.18202585920633      2.51830181989611      2.90215687599595
  H           1.04296648742737      3.96215201037037     -1.21654200561932
  H          -2.35410961282914      0.23734219871793      3.28828950239789
  H          -0.78684916234582      3.76775217428121      0.82731566307338
  H           1.19871819992187     -0.69846599176334      1.42996854812547
  H           1.27514145092015      2.39383933735138     -2.01726114880464
  H          -1.19097375477553     -4.42133532864244     -0.25268973919609
  H           1.59418047871970      0.54841192053600     -0.66369558914123
  H          -1.98052676527565     -2.17863255793594     -0.93493365512694
  H          -2.25540876852193      2.21029069824433     -2.92095978931127
  H          -0.69223133622239     -4.85660248372730      2.13653603558381
  N          -1.27995574144981      2.01306300337245     -2.67436891958456
  C          -0.73000316932112      3.06320967956577     -2.02325990505532
  C          -1.65313143181858      4.19067268749764     -1.93120395383599
  C           0.60925221286399      2.97697330395575     -1.38097903411358
  O          -2.78986332551255      4.09378333402958     -2.43464378354097
  C           0.43804587512670      2.24531858438398     -0.06321217371832
  C          -0.33551579389129      2.79608628163737      0.95318163969909
  C          -0.56390564362021      2.09902964814087      2.12309697792402
  C          -0.02212538067890      0.82959359783263      2.28625838860380
  C           0.77595568890720      0.28451049113723      1.28844933311299
  C           1.00335786868605      0.99151948987106      0.12233617439059
  O          -0.28015963486456      0.09217884134036      3.43105278865789
  C          -1.57699975367680     -0.51632924416363      3.44008840509716
  C          -1.62507693993361     -1.60295183492052      2.39384820854380
  C          -1.17574081244119     -2.86889884803583      2.75061763079895
  C          -1.03285916789369     -3.88393225993647      1.82016366950740
  C          -1.31237807642779     -3.64313966571832      0.48266308241568
  C          -1.75092641102808     -2.39552301958427      0.09638298637664
  C          -1.92270405659076     -1.37752456033406      1.03912465871924
  N          -2.42683440932255     -0.14847166547078      0.53967968105451
  O          -2.25000530116763      0.11083461909730     -0.65319952338280
  O          -3.05146473110397      0.61289594001706      1.28195980499346
  C          -2.06407194901221      6.48132975873244     -1.16356185310952
  N          -1.23210839710858      5.31347565201296     -1.31674680314292
  H          -0.29961210392349      5.35865503939082     -0.93823191164461
  H          -2.21713444377626      6.70202268436849     -0.10668893127907
  H          -1.60257352395071      7.34116601983793     -1.64875062132773
  H          -3.02449772165428      6.27223038274055     -1.63118134035360
  C          -0.76907918678611      0.78934484757375     -3.03276488537976
  O           0.38800457752821      0.45788067988162     -2.82691331915931
  C          -1.78050163774895     -0.06942715408305     -3.73140369125730
  H          -1.31626222775345     -1.00184092950547     -4.03663268237064
  H          -2.59433639561667     -0.27201435493693     -3.03833821982009
  H          -2.18087006958327      0.44594308665579     -4.60011027543926
