47
Coordinates from ORCA-job /home/esp/scriptDevelopment/drFrankenstein/11_PCY_CHARMM/04_torsion_scanning/torsion_NH1-CT1-CG321-CG2R61/scans_PCY_conformer_1/PCY_conformer_1_forwards/orca_scan E -79.891015610850
  H          -2.54220051582099     -0.92886686442433      3.21346695724547
  H          -2.98475376539452     -3.03757825365023      4.08839057277370
  H          -2.60532445435421      1.25051786015512      1.61128229611437
  H           0.13755758281541      4.95786262633311      0.10462269750936
  H          -2.82056577041993     -0.85834104757934      1.44575650648453
  H          -2.01635946925770      3.32480124598958      0.48592705413834
  H           1.45123901895034     -0.05558233095436      1.31320205255087
  H           1.41929460250989      4.10739419713387     -0.77452953008497
  H          -1.80499428195544     -6.62187876722509      2.08468646943392
  H           2.04759007470725      2.05609318121377      0.19438091750558
  H          -1.00539696906276     -5.26426128701313      0.16852888060566
  H          -1.95523283374258      3.58547537018838     -2.90214606125612
  H          -2.82416436268258     -5.48784330624789      4.03398645755748
  N          -1.22710404110852      3.21459672381193     -2.28361217516307
  C          -0.45951383440500      4.22478521265698     -1.78051922723258
  C          -0.75262947393241      5.50335916904438     -2.40667853910569
  C           0.35133951207295      4.09344044031479     -0.53136224195506
  O          -1.62346704066395      5.57289190537800     -3.29971649364116
  C           0.04960861722659      2.83294485192140      0.23458291569310
  C          -1.24717981200009      2.58710602073655      0.66244308226727
  C          -1.58603736212256      1.40516590666761      1.29593307645392
  C          -0.61348565721910      0.43568106168096      1.50007582246719
  C           0.70414247489891      0.70099479009585      1.13010395559800
  C           1.02887106928527      1.88642592163567      0.50670092229208
  O          -0.83481662787274     -0.79172521209477      2.05665862104646
  C          -2.17017399312721     -1.25176371953077      2.23443451451755
  C          -2.13383742164370     -2.75415202407412      2.15751231210775
  C          -2.56889219958748     -3.52850884454709      3.22293481431951
  C          -2.46977080046119     -4.91045377088828      3.19538058370136
  C          -1.89919918473950     -5.54862928856827      2.10441907888937
  C          -1.44913168552335     -4.80000131213213      1.03575014568854
  C          -1.58251953410371     -3.41262147302999      1.05056964243374
  N          -1.14514530052626     -2.71373406689126     -0.11205342861252
  O          -0.21600056338633     -3.19600907323105     -0.75127464753985
  O          -1.72965359014104     -1.69435361026464     -0.45996883943859
  C          -0.22520683988474      7.89181269200790     -2.57625373183782
  N          -0.05555154682413      6.58347557919679     -1.99290970780871
  H           0.69581892911224      6.46633609133393     -1.33316239330432
  H          -1.04935351837557      7.83678307520335     -3.28530608995139
  H          -0.45957073148624      8.62015114582206     -1.80029459567899
  H           0.67985227457155      8.20111290652208     -3.10035493256330
  C          -0.95098246653527      1.86668597475537     -2.36483007179780
  O           0.14864243254492      1.40958803408855     -2.10125075796396
  C          -2.11514874562732      1.03970859447096     -2.82648429314658
  H          -3.05854701691644      1.53330177363402     -2.62079982772170
  H          -2.02678647411858      0.85707067946723     -3.89551275493238
  H          -2.07624870367202      0.07876122088648     -2.31671000865858
