47
Coordinates from ORCA-job /home/esp/scriptDevelopment/drFrankenstein/11_PCY_CHARMM/04_torsion_scanning/torsion_NH1-CT1-CG321-CG2R61/scans_PCY_conformer_1/PCY_conformer_1_forwards/orca_scan E -79.897540391100
  H          -1.28537362316381     -0.46716655769174      3.45862181386747
  H          -1.65884638397326     -2.21883705984327      4.91552817657486
  H          -1.51300170823313      1.60340488116950      2.12631230752727
  H           1.09715004591886      4.57185261599061     -0.55796311522951
  H          -2.57310760123486     -0.37750509300671      2.21476580800060
  H          -0.80090436967438      3.57284453423148      0.90650507880323
  H           0.88231260209523     -0.84921772006610     -0.42303848066868
  H           1.79228765660311      3.51172632738964     -1.80089111342493
  H          -2.77275568493709     -6.11227420797829      3.55628172242279
  H           1.61596681605706      1.16057341958563     -1.65570951166018
  H          -2.94863219452401     -5.23244997693414      1.24311088457415
  H          -1.24580936823036      3.68876230605401     -3.81066014833435
  H          -2.15151531198650     -4.57500590940672      5.39398707725153
  N          -0.35227141137126      3.43164059314636     -3.37711180797696
  C          -0.20128319176890      4.08670816430455     -2.19266489559099
  C          -1.31693092060728      4.98125602717979     -1.92904319456413
  C           0.88884256287094      3.74788999187940     -1.23796478185859
  O          -2.24557976445933      5.06801008787177     -2.76099220229706
  C           0.46522541101572      2.51441677626991     -0.46057534987097
  C          -0.41984743354023      2.61056274386812      0.60253845351966
  C          -0.83134985172429      1.48726848159210      1.29967829060797
  C          -0.36515972816983      0.23349173808041      0.92451576512486
  C           0.52548085311545      0.12999049413731     -0.14415705516431
  C           0.93133923900617      1.25650868989110     -0.82665657275266
  O          -0.69789530873400     -0.94073779815005      1.53124143721288
  C          -1.68859044252120     -0.93301411319556      2.55168135412919
  C          -2.05726560606907     -2.36465375011834      2.82833892217193
  C          -1.95813645072556     -2.87604315761541      4.11454853411121
  C          -2.22829593555233     -4.20819651031276      4.38316273051409
  C          -2.57677436269281     -5.07193649832962      3.35545141184987
  C          -2.67339676119360     -4.59070779555374      2.06592944669791
  C          -2.43469336696099     -3.24215576770932      1.80321577276382
  N          -2.61002169320737     -2.80934504138338      0.45807397967291
  O          -2.42824810046679     -3.63027718156618     -0.43519926540284
  O          -2.97125189619875     -1.66099038563208      0.23558067847386
  C          -2.35266537316090      6.62892892197334     -0.43731385736661
  N          -1.30308180903877      5.70673517361673     -0.79260942188296
  H          -0.51516427246409      5.63884908342671     -0.16931557935834
  H          -3.10311152273711      6.60073360687560     -1.22531336367258
  H          -2.80980585547917      6.33578168116798      0.50823264740226
  H          -1.95724688592788      7.64099085673194     -0.34910580389598
  C           0.50155121570009      2.63716932966990     -4.09365781533658
  O           1.63585758838472      2.35870449284217     -3.72621571479690
  C          -0.10245727218368      2.14711759787356     -5.37926644161891
  H          -0.98317686188337      1.54640683389502     -5.16479659211012
  H          -0.39934043830019      2.98814935109277     -6.00059355779806
  H           0.62598477232900      1.54205972268599     -5.91048665064111
