47
Coordinates from ORCA-job /home/esp/scriptDevelopment/drFrankenstein/11_PCY_CHARMM/04_torsion_scanning/torsion_NH1-CT1-CG321-CG2R61/scans_PCY_conformer_1/PCY_conformer_1_forwards/orca_scan E -79.899853120490
  H          -0.40202422864621     -0.30214141885270      4.80732096931447
  H          -0.90802246329356     -2.58381959429847      4.81668069311217
  H           0.38524692427896      2.33920223470435      2.23258496866261
  H           1.01816501797749      1.59725431157340     -2.78501177591467
  H          -1.18722418781134      0.84171736951322      3.68303795104429
  H           0.17210499551446      3.10324015421950     -0.09735917288289
  H           0.38806245568667     -1.71515564572214      0.91036418902626
  H          -0.54301272224369      0.81097684605691     -2.92274913781317
  H          -3.47762744537456     -4.36385334539933      1.90491301113589
  H           0.12523509535050     -0.95625306274450     -1.42115197230508
  H          -3.63435185927822     -2.17991128884752      0.74121989236669
  H          -0.73708952305976      4.60334160007629     -3.54988157841697
  H          -2.13022987383694     -4.54062943322859      3.97454064014346
  N          -0.14133163045703      3.76682994048029     -3.51670123317404
  C          -0.61926498124191      2.89449158380838     -2.59136324763992
  C          -1.85754781881639      3.38352918814744     -1.99178358066836
  C           0.01055138968415      1.57094749387598     -2.35784855302324
  O          -2.22636956259880      4.55155431877066     -2.24405047045098
  C           0.10610096414729      1.12629179694488     -0.92215035457004
  C           0.20583373170122      2.04549311921480      0.11787654903809
  C           0.33155690675542      1.62333349624798      1.42659118620326
  C           0.38474202087101      0.26389029236762      1.71345954606373
  C           0.32984784882977     -0.66264718719997      0.67862321114149
  C           0.18617148837493     -0.22978862929395     -0.62597080727063
  O           0.50823042430376     -0.17639266451805      3.02121620074916
  C          -0.70984939452374     -0.13843368289488      3.77424356979571
  C          -1.61203146634866     -1.25527600096578      3.31178879309045
  C          -1.52725998946721     -2.49248887261209      3.93837117917629
  C          -2.20517679963912     -3.59900915174391      3.45491083141035
  C          -2.96213599095901     -3.50219332721937      2.29614580771598
  C          -3.05250134181982     -2.29119191581166      1.64301387190072
  C          -2.39995210818325     -1.16828574646330      2.15468951623806
  N          -2.58606015473027      0.04519013146858      1.44263227615458
  O          -2.70916365079129     -0.01863879076295      0.21967480055530
  O          -2.64972995536184      1.11057802266925      2.05462847421252
  C          -3.78193026213724      2.96119049504371     -0.55186360663950
  N          -2.57772919084156      2.54858799928389     -1.22731751548131
  H          -2.25651702815768      1.61058937697471     -1.02660958038663
  H          -3.96747201364630      4.00662479817191     -0.78977664564187
  H          -4.62313912488845      2.35201314652154     -0.88325585588804
  H          -3.66110005872265      2.84290706197357      0.52663623110523
  C           0.99115431148023      3.75315690990535     -4.29005757791361
  O           1.79096223361522      2.82548259839627     -4.29990923108478
  C           1.13515164507231      4.98930852775397     -5.12931586060801
  H           0.28333468775740      5.08382897504559     -5.79818075733934
  H           1.17421642864166      5.87055760055558     -4.49396336952585
  H           2.04818625683411      4.92202036881354     -5.71289247471781
