47
Coordinates from ORCA-job /home/esp/scriptDevelopment/drFrankenstein/11_PCY_CHARMM/04_torsion_scanning/torsion_NH1-CT1-CG321-CG2R61/scans_PCY_conformer_1/PCY_conformer_1_forwards/orca_scan E -79.899077128960
  H          -0.08509774401188     -0.95933554981782      3.62986003278797
  H          -0.79534987565258     -2.81605511423997      4.83522649068346
  H           0.01824784576489      1.50704222717228      2.66529871195379
  H           0.87676208702020      4.57469158646188     -0.71464130365919
  H          -1.49079834213127      0.00847853037605      3.08420113626413
  H           0.56836931483180      3.47570997038463      1.35277180376319
  H          -0.03804070527576     -0.85615869667190     -0.89361649749204
  H           1.81815768225043      3.59317940166627     -1.85160116210189
  H          -4.00234417368074     -5.29674049246002      3.48860826265191
  H           0.55082795592305      1.14054354917679     -2.22076312646672
  H          -4.42431355757419     -3.70940668495666      1.62946671354563
  H          -0.84077691583017      3.79575606870385     -4.26225161118545
  H          -2.19293838261329     -4.81663023085633      5.10684962681528
  N           0.03231768104291      3.67864975846682     -3.73608732474813
  C          -0.19664471487828      3.85830305664528     -2.40837786621065
  C          -1.60281427430232      4.09316039341430     -2.12326239638142
  C           0.84870347019085      3.69522561092240     -1.36113176023916
  O          -2.41733599407028      4.19043945928550     -3.06527436448179
  C           0.56707059476422      2.46012132911602     -0.53340377159549
  C           0.42149146216490      2.53414901135411      0.84371832403753
  C           0.10892716484294      1.41345600781248      1.59538701858404
  C          -0.08312240457749      0.19263602434258      0.96261981998506
  C           0.09596959059646      0.10332986549881     -0.41860060291906
  C           0.41703217128933      1.22357389773584     -1.15277401936697
  O          -0.42856653019239     -0.96683574889547      1.59031875995984
  C          -0.92255696476086     -0.91507213802961      2.92449679821243
  C          -1.82784824614702     -2.10170865834204      3.11517685341594
  C          -1.60202758620418     -3.00383567016271      4.14461278485004
  C          -2.38567000544065     -4.13702618743411      4.29247820543535
  C          -3.40047034892805     -4.40876068490585      3.38700195538844
  C          -3.63901707344812     -3.53217857763939      2.34811098089924
  C          -2.87237342545400     -2.37478363721858      2.22218729495709
  N          -3.21089604613597     -1.49161223879421      1.15649142208535
  O          -3.68809758717795     -1.98183689486837      0.13859349444908
  O          -3.05495815487039     -0.28556173098301      1.29855363564868
  C          -3.34384822161402      4.32912509100834     -0.41919447173661
  N          -1.96451516849959      4.23532924371255     -0.83031508636828
  H          -1.29468950279250      3.99918338867530     -0.11450856897707
  H          -3.94744032579206      4.51849960561079     -1.30496899693557
  H          -3.67156623610627      3.39664587499760      0.04588941637452
  H          -3.46238871179897      5.14807023851756      0.28857745317915
  C           1.17265211500457      3.39426328100651     -4.43953715235022
  O           2.26847926834197      3.23243455818694     -3.91572901157394
  C           0.93263538703587      3.29935022474670     -5.91964790810714
  H           0.20854189902416      2.51632611364204     -6.13099806631907
  H           0.54068343047723      4.24206710120989     -6.29321393328306
  H           1.86864809939563      3.07181846642586     -6.42059799342815
