47
Coordinates from ORCA-job /home/esp/scriptDevelopment/drFrankenstein/11_PCY_CHARMM/04_torsion_scanning/torsion_NH1-CT1-CG321-CG2R61/scans_PCY_conformer_1/PCY_conformer_1_forwards/orca_scan E -79.894046351420
  H          -0.51177368240986     -0.68687981295273      4.83743846586387
  H          -1.17521025863524     -2.91872391356068      4.68234112314546
  H           0.34268819391145      2.17321048353730      2.68065357787133
  H           1.53064431459467      2.72970726448373     -1.92807530590425
  H          -1.24193086357174      0.58968038173606      3.82432793973176
  H           0.40959211863261      3.29440409355642      0.49049165119610
  H           0.38946646063816     -1.62407550926146      0.73961624502578
  H           0.77293113101188      1.39389449444828     -2.73662303305952
  H          -3.77382449060090     -4.32038845648698      1.59453992783387
  H           0.42706479370926     -0.50610301359279     -1.45626622268293
  H          -3.76948857964920     -2.05123741554281      0.59188478806741
  H          -1.02957787316645      4.30496689321877     -3.91515849992060
  H          -2.49105935857365     -4.72992325213666      3.67182456702821
  N          -0.24918831240767      3.67472963928201     -3.69617280548345
  C          -0.44907218865285      3.07633748447551     -2.48980344616458
  C          -1.74201703806816      3.46136489181559     -1.93328111804266
  C           0.59565580570762      2.15501455633457     -1.96722529274726
  O          -2.35259059546769      4.41720520487123     -2.46032063999777
  C           0.41357962829831      1.47455842603672     -0.64004295634634
  C           0.39508174209295      2.21638911173149      0.54030609997550
  C           0.35966230465770      1.59285987651658      1.77096006483348
  C           0.36398365246719      0.20276409225219      1.84266057939015
  C           0.38422562085693     -0.54685646580182      0.67324157223727
  C           0.40886874730046      0.08828860213133     -0.55589405817796
  O           0.40208486017732     -0.44703121574795      3.06352421615914
  C          -0.80948813441598     -0.41471327188484      3.82421783459893
  C          -1.76161142611681     -1.44356800856635      3.26568359286537
  C          -1.76571345994787     -2.72544535214937      3.80081790306945
  C          -2.49676086212741     -3.74988324440583      3.22261276496081
  C          -3.21752107997598     -3.52281386938303      2.05896220272027
  C          -3.21854497881090     -2.26436190651053      1.49491455494675
  C          -2.51388077516013     -1.22495757234800      2.10323325699226
  N          -2.60123607317639      0.04796919902445      1.48313098750917
  O          -2.66789257643687      0.08742349813476      0.25339631633349
  O          -2.63059749268840      1.06434997949300      2.17688276109529
  C          -3.52316125367845      3.10180726779476     -0.31100835287130
  N          -2.23970974975660      2.78579938168003     -0.88535355883498
  H          -1.83101937475562      1.90483812762624     -0.60540296683947
  H          -3.80712639182641      4.10205616395104     -0.63100824816340
  H          -4.27913005780789      2.38697114094792     -0.64284360869842
  H          -3.44734529963390      3.05702095935448      0.77500017698230
  C           0.80418648109827      3.61537724073280     -4.57176497347861
  O           1.79959953203295      2.93041689499982     -4.37913099214456
  C           0.59592452479880      4.47138410841443     -5.78761040481324
  H          -0.29733245412178      4.15231287948448     -6.31854136915576
  H           0.46963581656272      5.51031917403615     -5.49367233937145
  H           1.45793895309171      4.38156076822971     -6.44146297753487
