47
Coordinates from ORCA-job /home/esp/scriptDevelopment/drFrankenstein/11_PCY_CHARMM/04_torsion_scanning/torsion_NH1-CT1-CG321-CG2R61/scans_PCY_conformer_1/PCY_conformer_1_forwards/orca_scan E -79.894784237810
  H          -2.04789960550691     -1.27085199821033      3.57684692097446
  H          -2.12233537753828     -3.54059731649565      4.09628238073362
  H          -2.73107414805812      1.11720255964366      2.59436572484385
  H          -2.18461747496810      4.85576423089804     -0.07303981263592
  H          -2.74348334001582     -1.00429819295278      1.94871477170700
  H          -2.89497397615186      3.31337928137028      1.55159916133625
  H           1.01606971048204      0.46424567183020      0.64990309447964
  H          -0.45306010002581      5.18126385380998      0.14891158954484
  H          -0.76479845003684     -6.52008298718787      1.35147077945235
  H           0.85505962381630      2.69582517818080     -0.38982492640508
  H          -0.47398703259985     -4.76619446559184     -0.37887478833975
  H          -1.00460222465121      3.00826212189410     -3.24060338144167
  H          -1.62394732290129     -5.89051303991257      3.58499924516854
  N          -1.46047662078142      3.15505978165891     -2.33607144440422
  C          -0.95711991174880      4.25493032910312     -1.70510544794494
  C          -0.04194248144700      5.00070482997359     -2.55182479328593
  C          -1.17602683220940      4.46787262082751     -0.24637082602473
  O           0.21826454768528      4.57944156498152     -3.69933116195442
  C          -1.04553731042676      3.15386386283840      0.49041911508960
  C          -2.02979199952377      2.70054854639395      1.35326740159012
  C          -1.94348737770255      1.44879606266705      1.93660500483685
  C          -0.85935788067786      0.62814971624778      1.65433820633586
  C           0.16774146729698      1.10352976973190      0.84174339934471
  C           0.06879767541048      2.35133204779013      0.26599384184266
  O          -0.70816430800275     -0.64472635781805      2.13119858701330
  C          -1.87214957589061     -1.37652296343524      2.50053157745005
  C          -1.63081294961711     -2.82128742806524      2.15346038853097
  C          -1.78035273143864     -3.81414330190668      3.11080069910908
  C          -1.49021518121027     -5.13843023527294      2.82428017088213
  C          -1.00878935797400     -5.49426593178739      1.57331698136687
  C          -0.84108002188027     -4.52368197872456      0.60647887949789
  C          -1.17091705053512     -3.19865204246812      0.88564523699599
  N          -1.02305466368799     -2.26281362774299     -0.17797685339080
  O          -0.11539184543212     -2.45052434931489     -0.98198544513848
  O          -1.81910773282641     -1.33671346345324     -0.28658064714828
  C           1.38281958652228      6.97458324133911     -2.83969172479595
  N           0.49393779811955      6.14125676454345     -2.06813983148332
  H           0.19988628939871      6.48989699792825     -1.17050939022607
  H           1.57688410354413      6.47072350903283     -3.78496709564937
  H           0.92570726745270      7.94505146635666     -3.03575020020236
  H           2.32115345408753      7.11888888726732     -2.30443837863189
  C          -2.55837400200688      2.39695394607112     -2.01440844344181
  O          -3.34146457200249      2.72305187728475     -1.13500346414938
  C          -2.69284012743165      1.13917832141626     -2.82028485296901
  H          -2.17129154149460      1.19940545354704     -3.76887565851905
  H          -2.27003920923552      0.32510211507818     -2.22911015395847
  H          -3.74474718617771      0.91805507063423     -2.97640443598580
