47
Coordinates from ORCA-job /home/esp/scriptDevelopment/drFrankenstein/11_PCY_CHARMM/04_torsion_scanning/torsion_NH1-CT1-CG321-CG2R61/scans_PCY_conformer_1/PCY_conformer_1_forwards/orca_scan E -79.898705680770
  H          -0.44531874133037     -0.76430405269237      3.44504865303119
  H          -0.67675954459768     -2.63916703522919      4.77047514220424
  H          -0.55979838384224      1.51284887672009      2.55957086987724
  H           0.97161343549390      4.55702391121394     -0.61280805594532
  H          -2.04548778643550     -0.15748798249960      2.91036606682376
  H           0.19815428135196      3.47618598600885      1.35669864839664
  H          -0.18075147044017     -0.82252816689197     -0.99792904129490
  H           1.84167822333331      3.50878954729290     -1.75033612804001
  H          -3.27342734034967     -5.86324381811971      3.71748797846408
  H           0.59664307754367      1.17639158166582     -2.21836528990565
  H          -4.10803414739439     -4.53673554975606      1.79427102031575
  H          -0.73790912413989      3.94213740892737     -4.22921059651270
  H          -1.56928326706969     -4.88033270738311      5.21960494682965
  N           0.08601980695233      3.68300483284122     -3.67537449007831
  C          -0.10498536664948      4.01933088652711     -2.37175342637957
  C          -1.42034842706639      4.59405770828214     -2.14536114237990
  C           0.87198102338602      3.70969675587412     -1.29223689988746
  O          -2.17470256798589      4.81642763113686     -3.11614330031856
  C           0.42563401298566      2.48001108020284     -0.52745541697319
  C           0.09892383837412      2.54514630324260      0.81762803865431
  C          -0.32505830599327      1.42302661307101      1.51171208357378
  C          -0.43771350932444      0.20679344031100      0.85154465156445
  C          -0.09921430162746      0.13134391014979     -0.50074314150669
  C           0.32474065248203      1.25372424975696     -1.17679655452380
  O          -0.84415158246702     -0.96101182279677      1.42354248125406
  C          -1.29281304919412     -0.94451890177641      2.77323294715922
  C          -1.90026422869423     -2.28956138747454      3.06216198482728
  C          -1.44100919696078     -3.04874210028960      4.12918541925237
  C          -1.93899295304185     -4.31759564461915      4.37768087110825
  C          -2.89394128231980     -4.87091824335415      3.53776607405589
  C          -3.36045104099727     -4.14048697531083      2.46405415577217
  C          -2.88307754933511     -2.85037422049211      2.23618593097742
  N          -3.45389419636731     -2.13776453409616      1.14293694139377
  O          -3.86938600346126     -2.78921627673242      0.19069621283827
  O          -3.54882059860730     -0.91934237975677      1.20202648983385
  C          -3.06637549780894      5.39855062120951     -0.52029724989517
  N          -1.76102040624923      4.89951711501742     -0.87596860407385
  H          -1.17604334604586      4.56963093327589     -0.12509128256655
  H          -3.58223368986898      5.67324397518342     -1.43862370126278
  H          -3.64554059437534      4.63372283847164      0.00005413001917
  H          -2.96531710040189      6.27405757113104      0.11962132860449
  C           1.15459119834092      3.13584149969226     -4.33409247851983
  O           2.19679723598150      2.80822017703731     -3.77902465245093
  C           0.90734169945948      2.97290568091453     -5.80728767801315
  H           0.04977832440998      2.32486427356739     -5.97118577773961
  H           0.70143361578195      3.93966086875932     -6.25979779973406
  H           1.78580417456617      2.53519552178654     -6.27167035882929
