47
Coordinates from ORCA-job /home/esp/scriptDevelopment/drFrankenstein/11_PCY_CHARMM/04_torsion_scanning/torsion_NH1-CT1-CG321-CG2R61/scans_PCY_conformer_1/PCY_conformer_1_forwards/orca_scan E -79.898619973780
  H          -0.45220712388196     -0.37865696166056      4.83198995252554
  H          -0.97793963514846     -2.65565789289624      4.80451969024824
  H           0.37563507543081      2.31064607338435      2.32876459386992
  H           1.19171001465004      1.78675301596343     -2.62562118511881
  H          -1.22498072070749      0.78890959795141      3.72352888879548
  H           0.23667596683846      3.13566556532063      0.01236887355646
  H           0.35919129279887     -1.70853357535311      0.90348805842832
  H          -0.27440676955773      0.88628166318549     -2.92366246504255
  H          -3.53276862041113     -4.37178460542202      1.84170235046336
  H           0.17051243441418     -0.88910368519107     -1.41314317798682
  H          -3.66124343601402     -2.16928730463856      0.70930930102664
  H          -0.79406048567512      4.56940488931775     -3.63508438518859
  H          -2.20619314198690     -4.59014715846757      3.92091684228247
  N          -0.15896634455240      3.76463085133588     -3.56912203731253
  C          -0.55292183662678      2.94343974028780     -2.55947301548150
  C          -1.79684158776586      3.41613167772303     -1.95677152900410
  C           0.15667901644354      1.66875812638947     -2.28599089680289
  O          -2.20665053874182      4.56008416654223     -2.25176332747340
  C           0.16985485383305      1.18139936840044     -0.86363349547699
  C           0.24940272125230      2.07290753730710      0.20317400539256
  C           0.33292197475023      1.61651873280163      1.50340666918293
  C           0.36572135211939      0.24916774832039      1.75650519592689
  C           0.32082618357561     -0.64970581232983      0.69760502250077
  C           0.21879539708140     -0.18240551169942     -0.59938277515067
  O           0.46904628541333     -0.22572621097784      3.05366030630279
  C          -0.75285881366775     -0.19498798700380      3.80011702255122
  C          -1.65734073659997     -1.29936139897634      3.31288419167098
  C          -1.58782603321142     -2.54629970691674      3.92174037645134
  C          -2.26929341120279     -3.64019375188101      3.41507142270249
  C          -3.01446390659526     -3.52012619807475      2.25071846052303
  C          -3.08906551106827     -2.29893027503633      1.61485362268298
  C          -2.43304810039420     -1.18906008523914      2.14987037082326
  N          -2.59917987822548      0.03666995734769      1.45468407346544
  O          -2.70498557129740     -0.00620447893594      0.22872322716315
  O          -2.66068122611650      1.09300250759245      2.08310322634712
  C          -3.69880238604683      2.99386119618331     -0.48861859602532
  N          -2.47847520819990      2.59604135982243     -1.14346965966707
  H          -2.15157738677184      1.65971126722943     -0.94480390418761
  H          -3.88654956574800      4.04041903996661     -0.71940808804145
  H          -4.53116059502292      2.38417717639897     -0.84206351500182
  H          -3.59623182060484      2.86287190847246      0.58973890034744
  C           0.94877021439686      3.75145304218690     -4.37705523641759
  O           1.79999381795088      2.87153954485028     -4.34018309945552
  C           0.99609225871607      4.92101694850272     -5.31676269945598
  H           0.11560607212817      4.91977018587164     -5.95430692350982
  H           1.01373343325101      5.85155241744238     -4.75504822109821
  H           1.88856202679893      4.85140729460199     -5.93107641233155
