47
Coordinates from ORCA-job /home/esp/scriptDevelopment/drFrankenstein/11_PCY_CHARMM/04_torsion_scanning/torsion_NH1-CT1-CG321-CG2R61/scans_PCY_conformer_1/PCY_conformer_1_forwards/orca_scan E -79.897163304800
  H          -1.93746794478443     -1.17751557265842      3.18345899905669
  H          -1.56620513763025     -3.08853948259824      4.42218943431656
  H          -2.98984524009385      0.63855291143347      1.93609701241655
  H          -2.57781637831929      4.74164494184366     -0.11855125775817
  H          -2.66200279739022     -1.57676810572931      1.59429766227780
  H          -3.28820849946909      2.90614604127716      1.10807345822509
  H           0.92238406505318      0.52451858522581      0.22293126084076
  H          -0.89533602031005      5.13863816335400      0.26643237447102
  H           0.24801076352759     -6.57219254703019      2.74276288739608
  H           0.62159319461824      2.82820438770133     -0.60074512788443
  H           0.19169289863484     -5.49875728417623      0.50640804260461
  H          -1.69640049893031      3.98783897176818     -3.59586186471783
  H          -0.66788546078830     -5.35622859418109      4.69431590636723
  N          -2.10245685782769      3.94981217111685     -2.65535746288962
  C          -1.26032360885774      4.52063656582676     -1.75002235277949
  C          -0.05184029220491      5.02522095207662     -2.37857872269534
  C          -1.53742852919461      4.45813897886932     -0.29151122883288
  O           0.06579248181651      4.96589653161802     -3.62181680994580
  C          -1.35384080438019      3.03929055902924      0.21244082982596
  C          -2.35493774198968      2.39807007483319      0.92224182329154
  C          -2.18807959307109      1.10366230208155      1.38627130916463
  C          -1.00287474373531      0.42565827971105      1.13262166520388
  C           0.00919738726408      1.06530803283128      0.41637819083896
  C          -0.16817432198236      2.35419068788234     -0.03739810646351
  O          -0.72293903332140     -0.84522422005453      1.54082109407931
  C          -1.74003618433329     -1.59721029141666      2.18985914510141
  C          -1.24179064809821     -3.01030531754241      2.31866377837079
  C          -1.19631629743586     -3.62426642099845      3.56237353430991
  C          -0.68139067297358     -4.90124319589893      3.71705925402317
  C          -0.16768055962358     -5.58505098432670      2.62525091155508
  C          -0.19249046762950     -4.99326745815195      1.37900751181846
  C          -0.74316082305280     -3.72211357210595      1.21986735952265
  N          -0.78618880779278     -3.20228710514709     -0.10524232118663
  O           0.07611547093420     -3.57578813933244     -0.89380025926815
  O          -1.69110044900197     -2.44304933463222     -0.42643534891989
  C           2.14899694159009      6.07290304812689     -2.11525071304654
  N           0.90899326833909      5.55513833605942     -1.59303394579875
  H           0.79619271534910      5.55024840015636     -0.59240130068953
  H           2.11130936341599      5.99927988784604     -3.20075491778496
  H           2.27428329355661      7.11607762610799     -1.82546135826437
  H           2.99296409467834      5.49102653805697     -1.74274718935133
  C          -3.37272012635067      3.45727176441667     -2.51719740996887
  O          -3.98524280307071      3.46104264541740     -1.45864801211105
  C          -3.92883165020030      2.91761769558586     -3.80513583222254
  H          -3.91256474545007      3.68451989443168     -4.57507713660208
  H          -3.32550861242942      2.07677088296189     -4.13924752341035
  H          -4.94942958705421      2.58450176833359     -3.64354724248606
