47
Coordinates from ORCA-job /home/esp/scriptDevelopment/drFrankenstein/11_PCY_CHARMM/04_torsion_scanning/torsion_NH1-CT1-CG321-CG2R61/scans_PCY_conformer_1/PCY_conformer_1_forwards/orca_scan E -79.899381152620
  H           0.33284108763779     -1.44089069792972      3.75703914844793
  H          -0.84905879876965     -3.16699599908027      4.73644992814217
  H           0.64404961782422      1.38745752968099      2.70764729807022
  H           0.61947302503123      4.41485403202125     -0.80705111349625
  H          -0.69880961824508     -0.01979409318991      3.42027149011026
  H           0.92091258849625      3.34023542608079      1.28595869683602
  H          -0.06923354117665     -1.02674220635389     -0.74475106308683
  H           1.69540799332769      3.53826857711682     -1.89223608735489
  H          -4.75184109193916     -4.30062122786359      3.41954783451621
  H           0.26581844238207      0.94763392685304     -2.18740258268669
  H          -4.75809044598664     -2.37964100438946      1.84958698857414
  H          -0.86846954741097      3.75701966519060     -4.37896385495203
  H          -2.78990248710402     -4.66307905025605      4.88413832707568
  N          -0.01257873899002      3.77376015614977     -3.81195003901171
  C          -0.31684253764859      3.55637719976257     -2.50546782556900
  C          -1.74529078350292      3.35530298799826     -2.30658593831477
  C           0.70651936574106      3.51700687481772     -1.42716005296145
  O          -2.51055862376278      3.39311592128445     -3.29362299723197
  C           0.57877113262446      2.29555052141099     -0.55039597268782
  C           0.69889201220047      2.38745980515012      0.82937653235107
  C           0.53511358424197      1.27843164563879      1.64064877781709
  C           0.21551863861905      0.05175680760707      1.07289303794192
  C           0.15025737502207     -0.06085950536503     -0.31663314352643
  C           0.33524941778224      1.04629199676601     -1.11444857080307
  O          -0.02801047389299     -1.09852643376224      1.76650366374519
  C          -0.46551329230723     -1.04509865695668      3.12161517294508
  C          -1.69947288487076     -1.90316965708404      3.24943818748015
  C          -1.71323576119971     -2.98520517055515      4.11745032860303
  C          -2.80561103692662     -3.83460141935830      4.19446628432708
  C          -3.90622556992983     -3.63425785185173      3.37485407601685
  C          -3.91540425853475     -2.57027928610873      2.49622639266023
  C          -2.82933007355358     -1.69758827877072      2.44505920435435
  N          -2.93683011684552     -0.59312006071816      1.55447957775616
  O          -3.61805356483733     -0.73092257771306      0.54063628019419
  O          -2.38408172323771      0.46531198218378      1.83286215315263
  C          -3.56280714652921      2.83564485673780     -0.75484048773975
  N          -2.19379395543273      3.18229515671423     -1.04658880542546
  H          -1.52351329787085      3.03312072185757     -0.30680096128939
  H          -4.14991874720332      2.98037617363787     -1.65965339820728
  H          -3.63762289309060      1.79172733070143     -0.44167705938494
  H          -3.94352536025945      3.47414947077743      0.04080267772568
  C           1.18231739023524      3.96411478610634     -4.45485466609863
  O           2.26288250570851      3.99621991566856     -3.87816636679687
  C           1.02261707585932      4.13256626308113     -5.93858780899514
  H           0.54682788976007      3.25317034481324     -6.36538762305328
  H           0.39931647883521      4.99831344135673     -6.14808771733452
  H           1.99985074972988      4.27187966014134     -6.39063792283514
