47
Coordinates from ORCA-job /home/esp/scriptDevelopment/drFrankenstein/11_PCY_CHARMM/04_torsion_scanning/torsion_NH1-CT1-CG321-CG2R61/scans_PCY_conformer_1/PCY_conformer_1_forwards/orca_scan E -79.896908922020
  H          -1.77370065111067     -0.40558653105174      3.23610481285003
  H          -2.22316541595031     -2.06074192131066      4.77297067403505
  H          -1.96265477447417      1.49205056245677      1.68663986368140
  H           1.13464233111903      4.53801049144796     -0.53269800213400
  H          -2.75111280942345     -0.61687708191385      1.74855589811014
  H          -1.23898827408343      3.46100615749601      0.46178936194302
  H           1.24614564880630     -0.75114024711035     -0.02426850852078
  H           1.73705458745961      3.49441254753190     -1.83235851204701
  H          -2.50322264603533     -6.17948792539035      3.67633574489610
  H           1.97847572450415      1.25257032678563     -1.26545289298498
  H          -2.27695156253682     -5.53857009000114      1.29060347255473
  H          -1.44275532096696      3.79420923799529     -3.64959814982194
  H          -2.50277782217795     -4.41373446566290      5.41105434161171
  N          -0.56997317621780      3.44625475276870     -3.23934403540861
  C          -0.23766526395410      4.17545492115960     -2.13769687548186
  C          -1.19143280824190      5.24392766932769     -1.89063278404774
  C           0.86172531183761      3.74931535293104     -1.23186515087791
  O          -2.13290484718102      5.42532367503932     -2.69268447275865
  C           0.43162598954930      2.50579563065147     -0.47645678958598
  C          -0.67978899545335      2.54389251196398      0.35333313703503
  C          -1.09695773080179      1.42213782093862      1.04856891829128
  C          -0.40058432986554      0.22764818991923      0.90940026914549
  C           0.71688564216864      0.18354016958432      0.07607586958382
  C           1.12445031290881      1.30892974012913     -0.60866189347634
  O          -0.71345525990743     -0.93960652542162      1.54076888472945
  C          -1.89887317122781     -1.00092890468061      2.32383708867380
  C          -2.12967561846061     -2.44369948544269      2.67990135379663
  C          -2.25179266828952     -2.82199320960434      4.00957346094454
  C          -2.40143577278943     -4.15126950401472      4.37038329095602
  C          -2.40207832801768     -5.14280579939845      3.40058644028881
  C          -2.27327999900289     -4.79425740528635      2.07191974420796
  C          -2.15645952581721     -3.45294961434567      1.70811553530670
  N          -2.08526772006432     -3.17026855460877      0.31433950866388
  O          -1.62060118195170     -4.03495025973085     -0.42176114677372
  O          -2.52039736791868     -2.10723155165071     -0.10944435515588
  C          -1.90978925021330      7.10456786957726     -0.46438556429609
  N          -1.02522828353284      6.01554059767785     -0.79637284753882
  H          -0.24939238589906      5.84555575734312     -0.17731465578229
  H          -2.68728113147633      7.14756326856984     -1.22515410947539
  H          -2.36582833397651      6.93751517701403      0.51176085553339
  H          -1.36409902629002      8.04830539892425     -0.45062832161393
  C           0.11872764640092      2.47416856431807     -3.91501270450812
  O           1.23178969720954      2.08691007648789     -3.58760706030759
  C          -0.63792109643254      1.94195033615570     -5.09923535690741
  H          -1.55833147018358      1.47087305372408     -4.76231004891375
  H          -0.89000178860322      2.74961038149400     -5.78148781627050
  H          -0.02668708343445      1.20707883721299     -5.61418647214968
