47
Coordinates from ORCA-job /home/esp/scriptDevelopment/drFrankenstein/11_PCY_CHARMM/04_torsion_scanning/torsion_NH1-CT1-CG321-CG2R61/scans_PCY_conformer_1/PCY_conformer_1_forwards/orca_scan E -79.896405444460
  H          -1.84543401080231     -1.15737784502726      3.23028947547130
  H          -1.48876659141639     -3.09016431730104      4.44069285040432
  H          -2.88099655529420      0.72193907709101      2.09796068228296
  H          -2.45631271865417      4.77446427230951     -0.06851491013617
  H          -2.70961447529055     -1.51799519716233      1.70268498471626
  H          -3.12807415302121      3.00542248010836      1.29968154152767
  H           0.84807456514057      0.40035034186744      0.03781521357731
  H          -0.75618645045965      5.11202901451516      0.28844021345587
  H           0.04310867769596     -6.64793721649998      2.63974032298303
  H           0.59869671694379      2.72192259530201     -0.75901981860171
  H          -0.12045275063352     -5.56665092446972      0.41241447430956
  H          -1.54873589383459      3.88217470276444     -3.55386722634050
  H          -0.67911879499064     -5.39760647139582      4.65002641889113
  N          -1.94473982407789      3.83292239371201     -2.60990246241773
  C          -1.17681730415221      4.53493140834031     -1.73012568973548
  C          -0.04883826363608      5.17194336531123     -2.38794760409891
  C          -1.42817317792248      4.45935384634447     -0.26710745735281
  O           0.06698274016460      5.08233445656728     -3.62990681925365
  C          -1.28250434536222      3.03340615453145      0.22388741199456
  C          -2.24594109103025      2.44756421675126      1.02758581884807
  C          -2.10862516652111      1.14467216802532      1.47646827682137
  C          -0.99137717107993      0.40280728738482      1.11544010397023
  C          -0.01400744210492      0.98869487471341      0.31083788438986
  C          -0.16220855885097      2.28641506782124     -0.12799041331414
  O          -0.74677288869809     -0.88374220606402      1.49744569597820
  C          -1.74648495890855     -1.58501145176512      2.22548257282613
  C          -1.30931841849423     -3.02098377596646      2.31961617567623
  C          -1.20519736156459     -3.63997327070786      3.55728502795640
  C          -0.73987718123866     -4.93963369103431      3.67596618728872
  C          -0.33483690466876     -5.64275898999899      2.55121246128714
  C          -0.41960444087788     -5.04684148125551      1.30954844012689
  C          -0.92231816644641     -3.75184809639786      1.18895538146219
  N          -1.03566167571344     -3.22705051976231     -0.12995691231321
  O          -0.24315666152429     -3.62981143180154     -0.97533347733882
  O          -1.93161931568486     -2.43409958229707     -0.38843858128078
  C           1.99203020638698      6.51561605858643     -2.19500964316214
  N           0.83799801607768      5.85646070064470     -1.63601834392921
  H           0.73542707817437      5.87811206318521     -0.63470113326840
  H           1.95443123232329      6.39578208068945     -3.27639876219808
  H           1.97771384630879      7.57653380854425     -1.94576700006245
  H           2.91029073863029      6.06746862299105     -1.81373764653133
  C          -3.16331732250039      3.22894396061860     -2.44642504924923
  O          -3.78591677604643      3.25007988701112     -1.39461630721376
  C          -3.64706511481471      2.54705019339904     -3.69523089899826
  H          -3.68870846224066      3.25211729150909     -4.52122763673667
  H          -2.96394501752978      1.74274107462002     -3.95831846063304
  H          -4.63501841175913      2.13325300364726     -3.51791536207897
