47
Coordinates from ORCA-job /home/esp/scriptDevelopment/drFrankenstein/11_PCY_CHARMM/04_torsion_scanning/torsion_NH1-CT1-CG321-CG2R61/scans_PCY_conformer_1/PCY_conformer_1_forwards/orca_scan E -79.894185048450
  H          -2.38521645440633     -0.65961271683471      2.82336606192266
  H          -2.92333732466223     -2.33110906846098      4.32061129204651
  H          -2.47320631833335      1.11229786462547      1.13727365118158
  H           0.75735775836862      4.63521673167310     -0.15810158046028
  H          -2.82401920361221     -1.11677079708995      1.14690709029508
  H          -1.79886824961349      3.18318147484431      0.05508698981653
  H           1.48010436233394     -0.42962632974664      0.64349047998845
  H           1.58338139470075      3.72541386253772     -1.43417139711530
  H          -2.05981272990646     -6.44338755009793      3.55195937585829
  H           2.15619891562065      1.66797777500516     -0.46020636095393
  H          -1.28796698971320     -5.83436242870175      1.27369762588533
  H          -1.81091648633650      3.92248736691583     -3.22984985161350
  H          -2.90593491936262     -4.67159790138160      5.05894459798418
  N          -1.00932723464355      3.47447158702504     -2.77491121057907
  C          -0.38460609122743      4.34469183425013     -1.93113572195434
  C          -0.95387814117506      5.67914969621469     -2.01290351867935
  C           0.62063820831932      3.88308392043764     -0.93591208264679
  O          -1.92047441110752      5.88912483594102     -2.77764509260295
  C           0.22433542924197      2.57812229280301     -0.28308600190824
  C          -1.07050384958410      2.39449805968562      0.17812931279303
  C          -1.45649046632900      1.21641334248524      0.79481261047909
  C          -0.53303757422094      0.19237140198121      0.95845305115607
  C           0.77485706481042      0.37572748802667      0.50999736562043
  C           1.14519004221013      1.55338471946322     -0.10203956111410
  O          -0.79230556961807     -1.01033695540904      1.54925462388936
  C          -2.12024938225755     -1.29549521530109      1.97011999261350
  C          -2.15995356841097     -2.74319112086051      2.37542450708963
  C          -2.58140949227126     -3.10171738352606      3.64803419622121
  C          -2.56365269453081     -4.42211905644816      4.06758970754195
  C          -2.09020708801886     -5.41701554926723      3.22530222292010
  C          -1.65622601433303     -5.08563824670868      1.95806829365840
  C          -1.70724451233765     -3.76093958734616      1.52588160393594
  N          -1.29691879599523     -3.50637855819929      0.18586234133713
  O          -0.46456539148015     -4.25911386527569     -0.30902555660046
  O          -1.81046779779964     -2.58662612933395     -0.43715638817036
  C          -0.88231127237996      8.02272257257036     -1.29854432093992
  N          -0.40965847797900      6.66064555346740     -1.26316780747789
  H           0.40811584257452      6.47245473222498     -0.70699701774356
  H          -1.74255184603617      8.06091712424141     -1.96455383927211
  H          -1.18035807186041      8.34403373878492     -0.30051566226643
  H          -0.10459617318415      8.68802341795656     -1.67470432842296
  C          -0.60569836941621      2.24424287799587     -3.22650057821580
  O           0.47219246028313      1.75079345076323     -2.93175259903386
  C          -1.61985309917670      1.58908876104809     -4.12078470030017
  H          -2.54775111375868      1.44048388247321     -3.57418030787808
  H          -1.82098927692045      2.21538121588993     -4.98617913270086
  H          -1.23879702646432      0.62665687865833     -4.44824237558412
