47
Coordinates from ORCA-job /home/esp/scriptDevelopment/drFrankenstein/11_PCY_CHARMM/04_torsion_scanning/torsion_NH1-CT1-CG321-CG2R61/scans_PCY_conformer_1/PCY_conformer_1_forwards/orca_scan E -79.887966232130
  H          -2.51850823895781     -1.05922863731411      3.27662686491259
  H          -2.77718121877788     -3.21599669969046      4.10632260898448
  H          -2.73496968063435      1.15349823030269      1.67038252832609
  H          -0.37947132479698      5.03037270639160      0.19935952824048
  H          -2.85302063692099     -0.94105950116643      1.52152298327393
  H          -2.25083947163401      3.28532226075760      0.60631648910380
  H           1.39066654263446      0.08218801429723      1.38424639914826
  H           1.15497692352606      4.39298734004845     -0.41612311005809
  H          -1.52129019746317     -6.66338181837154      1.91703301644695
  H           1.88164623039242      2.25583388482343      0.33305211149636
  H          -0.90555449673248     -5.20269447464607      0.00872412879569
  H          -1.96406014910934      3.65673820544714     -2.94567676255966
  H          -2.48806058194170     -5.65065156957360      3.95770982826907
  N          -1.35472788641191      3.27176410263049     -2.21661752098881
  C          -0.50643189154692      4.23488139337430     -1.74292244548915
  C          -0.55574415064906      5.45069488726213     -2.53751640205289
  C           0.07743824118855      4.20866440138124     -0.36370586015709
  O          -1.25856216571974      5.48958378364640     -3.57014693567107
  C          -0.15751778068024      2.91779949085040      0.36995178474709
  C          -1.44300312289751      2.58824363397336      0.77459965664622
  C          -1.72211176247563      1.37306297895745      1.37336680460422
  C          -0.69928006907418      0.45395158189911      1.56137909018747
  C           0.60529616859023      0.80193834283942      1.21352252772566
  C           0.87052721630068      2.02065610920186      0.62771288380210
  O          -0.85398222506438     -0.79982260027704      2.08032572997413
  C          -2.16112269527628     -1.32898036361498      2.27628011354756
  C          -2.05271837554807     -2.82409413534617      2.14318877868276
  C          -2.38490375908494     -3.65520411377757      3.20290845836367
  C          -2.21331862614719     -5.02794100969586      3.12165903733147
  C          -1.67176778631963     -5.59823184834401      1.97955922503523
  C          -1.32374662311829     -4.79185906157498      0.91473145951183
  C          -1.52989384916539     -3.41522549641538      0.98554301324271
  N          -1.19864445030846     -2.65679935219864     -0.17586858393419
  O          -0.28717765631883     -3.06895519377001     -0.88447963097950
  O          -1.85454534040571     -1.66029628130737     -0.45232050369100
  C           0.24027872483594      7.74829817008158     -2.85732064951818
  N           0.17254153206632      6.50944505371184     -2.12170503509395
  H           0.76868038262612      6.41773422826027     -1.31598317179338
  H          -0.44530617604765      7.67420478096858     -3.69964032129420
  H          -0.05552197212433      8.58036175323526     -2.21875471211460
  H           1.25067623503168      7.92067246648676     -3.23000505994642
  C          -1.19598404414749      1.89874509784359     -2.21987710404652
  O          -0.15486729104577      1.35813000033334     -1.89189211214722
  C          -2.41348396078310      1.15852122499695     -2.69123037644442
  H          -3.32100706008991      1.70506815161994     -2.45920925211337
  H          -2.34867229200804      1.00739748015033     -3.76686332468963
  H          -2.42671918776494      0.18168240131135     -2.21216617561650
