47
Coordinates from ORCA-job /home/esp/scriptDevelopment/drFrankenstein/11_PCY_CHARMM/04_torsion_scanning/torsion_NH1-CT1-CG321-CG2R61/scans_PCY_conformer_1/PCY_conformer_1_forwards/orca_scan E -79.896080648770
  H          -2.14831658572107     -0.47286037988042      2.98736423890768
  H          -2.64084540549641     -2.08543246068831      4.55973642805406
  H          -2.27766236197726      1.29831620006782      1.29540056358620
  H           1.08309948344738      4.52268430936618     -0.44605749483678
  H          -2.82586629651717     -0.88953938235822      1.38137695902987
  H          -1.55354575049968      3.29354026678062      0.10784691167298
  H           1.42648511202898     -0.60751884911434      0.34673492783179
  H           1.66246961533094      3.51278088454887     -1.77934335072487
  H          -2.25062932850800     -6.26039487352262      3.74455104395455
  H           2.15560872749354      1.41854251341949     -0.85667708280505
  H          -1.71875720593079     -5.72829638269392      1.38039865592947
  H          -1.60010589517609      3.90840088712612     -3.50042106514398
  H          -2.74049411193844     -4.41640189641269      5.32131812209421
  N          -0.76986746264142      3.48044123461577     -3.07818605109619
  C          -0.29230089556802      4.25747465094006     -2.06570804627490
  C          -1.06862985265172      5.47533289620176     -1.90799220392502
  C           0.78874441992845      3.76629308458878     -1.17259684529928
  O          -2.00660179649367      5.71153254427371     -2.70057294849609
  C           0.35574736231760      2.50614632230868     -0.45022664876664
  C          -0.88851850165835      2.44365190848439      0.15940002464339
  C          -1.30388329385954      1.30787274332283      0.83350906779807
  C          -0.46521164354153      0.20264316987669      0.89928074725696
  C           0.78860482101739      0.26064617115591      0.29069129293110
  C           1.19058064777517      1.39826051981770     -0.37558520133538
  O          -0.75872212047239     -0.96757905260939      1.53569145529891
  C          -2.04677841936277     -1.13066803332963      2.11586851622473
  C          -2.16596868769696     -2.56850313990100      2.54056995821032
  C          -2.45578569059616     -2.88511283231061      3.86018533523784
  C          -2.50357505869160     -4.20085891953870      4.29194030975305
  C          -2.22985853610789     -5.23610699743658      3.41066669319950
  C          -1.92996026985023     -4.94782029678384      2.09502717127303
  C          -1.91568132219504     -3.62479253740790      1.65466218895391
  N          -1.65491934112501     -3.41186514531508      0.27080485078562
  O          -0.97081861826908     -4.24362067642844     -0.31644104590731
  O          -2.14814528511864     -2.44420389904969     -0.29405802466771
  C          -1.45102380004682      7.56051765081826     -0.67720928807562
  N          -0.74931999290092      6.32223166500369     -0.90748743186091
  H           0.01020694174541      6.10022601839876     -0.28504079558198
  H          -2.23443140040977      7.64545054123838     -1.42834261379971
  H          -1.89910590905150      7.56318462083888      0.31669228549219
  H          -0.76928707228058      8.40643992788070     -0.76794886038148
  C          -0.25106368938668      2.35355545797667     -3.65900251972917
  O           0.81406003897596      1.85617535582492     -3.32300501478161
  C          -1.12798447460075      1.80622191145478     -4.75014854713062
  H          -2.08985174578684      1.51554818685794     -4.33468229490131
  H          -1.29232643534112      2.55934021056872     -5.51641362535012
  H          -0.65075291259072      0.93614390102425     -5.19057074724767
