47
Coordinates from ORCA-job /home/esp/scriptDevelopment/drFrankenstein/11_PCY_CHARMM/04_torsion_scanning/torsion_NH1-CT1-CG321-CG2R61/scans_PCY_conformer_1/PCY_conformer_1_forwards/orca_scan E -79.893135058050
  H          -2.46521645144305     -0.75042233827505      2.95214601594688
  H          -3.01824170606999     -2.60233664956235      4.22980042263210
  H          -2.50722523095404      1.16193995659655      1.30205959579025
  H           0.57930991600805      4.75732888058853     -0.05941714148896
  H          -2.79437698281885     -1.03029684037546      1.21302854839981
  H          -1.86417178067242      3.23033271418189      0.19545793228889
  H           1.49170723188835     -0.28790212813117      0.90932916886872
  H           1.54518026706588      3.83488084785645     -1.22442455859099
  H          -1.98985430411413     -6.57406120556382      3.03870725050795
  H           2.13889271473292      1.80917552024272     -0.21030705477037
  H          -1.13254473597255     -5.68546029352303      0.88690161725772
  H          -1.89841185225871      3.81287720933081     -3.08568435050298
  H          -2.96133772156772     -5.01243808622998      4.69487966734120
  N          -1.11367674068766      3.38221362347406     -2.58641576953028
  C          -0.42220493706289      4.31825693799313     -1.87559415189492
  C          -0.89475686931840      5.66522803240787     -2.14800967822640
  C           0.54243438586862      3.95533650778139     -0.79943134586671
  O          -1.85929332799188      5.83642125842709     -2.92406018984790
  C           0.17819276525494      2.66814117307045     -0.09972537346696
  C          -1.11914775356040      2.46224363527652      0.34538807506031
  C          -1.48803870600563      1.28505082875982      0.97318818084345
  C          -0.54484977851017      0.28399605060034      1.16259732089587
  C           0.76956579282036      0.49748185613942      0.74906222934519
  C           1.12306671679649      1.67499085448433      0.12718277176006
  O          -0.79198046700634     -0.92500378803437      1.74637061278634
  C          -2.13432395169555     -1.28239044441328      2.05219235243871
  C          -2.15389451298447     -2.76727937711475      2.29058150785111
  C          -2.62218294450319     -3.28111733655120      3.49126084130325
  C          -2.58196324181684     -4.64049591198578      3.75683178633304
  C          -2.03825691956918     -5.51790843118015      2.83066391588766
  C          -1.55645152372390     -5.03079361583085      1.63267036995451
  C          -1.63055248176988     -3.66707590315687      1.35307610742024
  N          -1.16568260707203     -3.24673845570663      0.07313297410889
  O          -0.27325576249734     -3.90318412368053     -0.45316342547699
  O          -1.69185712205767     -2.28643554871106     -0.47394914252979
  C          -0.62279801348339      8.07422632222928     -1.78905992351939
  N          -0.26391744514392      6.69799339224734     -1.54857404038788
  H           0.57277127317450      6.52802257133808     -1.01488588145921
  H          -1.52943055550024      8.08294330289018     -2.39145162008804
  H          -0.80729737850461      8.58197387911862     -0.84288662585463
  H           0.17094915879349      8.59265006403700     -2.32859066517441
  C          -0.77860824053707      2.08722137695820     -2.89475619390024
  O           0.30722057264144      1.60270837376694     -2.61701572050493
  C          -1.87102360833914      1.35423674839684     -3.62008960598397
  H          -2.82357221324497      1.50547745269676     -3.12081904611198
  H          -1.94712190990901      1.72134847827387     -4.64115292569020
  H          -1.63276101667761      0.29466262886173     -3.64104483415402
