47
Coordinates from ORCA-job /home/esp/scriptDevelopment/drFrankenstein/11_PCY_CHARMM/04_torsion_scanning/torsion_NH1-CT1-CG321-CG2R61/scans_PCY_conformer_1/PCY_conformer_1_forwards/orca_scan E -79.899554527500
  H           0.03785195049420     -1.05867915935708      3.79210201813711
  H          -1.04039865437985     -2.80298440541169      4.90465602822106
  H           0.37824112453875      1.52075229475470      2.72464501813266
  H           0.81040520186503      4.53306632791883     -0.78179449806669
  H          -1.16668433655584      0.12278455664319      3.19316239930363
  H           0.79961254579346      3.47066159344434      1.33015759270751
  H           0.09555808587774     -0.92129201912192     -0.76958142108832
  H           1.77916466333099      3.60036371980882     -1.92978922346133
  H          -4.46625219630660     -4.74867483826967      3.25167657991913
  H           0.55676520578188      1.05197865371558     -2.17897754430726
  H          -4.50145398431169     -3.08367460208075      1.41240226742999
  H          -0.95557706531226      3.67556718434669     -4.24997191157030
  H          -2.73861385403140     -4.57416546042260      5.01381291456498
  N          -0.05802019084042      3.67977265291006     -3.75219177493207
  C          -0.27085955522096      3.68921173612632     -2.40995099994161
  C          -1.68773207211516      3.63728332475834     -2.08119824700484
  C           0.82411718034179      3.63315048236348     -1.40212868732192
  O          -2.53259626772740      3.61830451108362     -3.00123023402457
  C           0.66919185059155      2.41130620926575     -0.52664637219448
  C           0.63440967051883      2.51381044961365      0.85700687955159
  C           0.39109463059000      1.40732202395710      1.65261205667228
  C           0.15669157314809      0.17320283945814      1.06051782164688
  C           0.25226522112508      0.04996026692358     -0.32594335104270
  C           0.50440417580493      1.15694132521812     -1.10572533606234
  O          -0.15592576931062     -0.96826631896559      1.73985727863028
  C          -0.73417059547815     -0.87116082301213      3.03852182942772
  C          -1.82007755151276     -1.91038634994978      3.13554901433200
  C          -1.81102299522567     -2.85409966814486      4.15204960813638
  C          -2.76413712789757     -3.85850847167996      4.20799271443961
  C          -3.73378907377825     -3.95894825844803      3.22165630501872
  C          -3.75808390356864     -3.03838016065465      2.19337165400350
  C          -2.82196028732657     -2.00686003261925      2.16147631580867
  N          -2.94072364490651     -1.06304792878218      1.10030093364564
  O          -3.35409371446128     -1.46778718147726      0.01878038394869
  O          -2.67112423414423      0.11437245526899      1.30652375529822
  C          -3.37977934985882      3.40239286251979     -0.32656373618352
  N          -2.03247317115235      3.65383185672357     -0.77651524382982
  H          -1.30514992318258      3.54168872036468     -0.08653188620075
  H          -4.03614933446035      3.41723616152808     -1.19459832929747
  H          -3.43967917878521      2.42534104129080      0.15894216298835
  H          -3.68558221622061      4.17414871850503      0.37843590465093
  C           1.09086315754617      3.64966140583475     -4.49727955971370
  O           2.21442908136084      3.64446443212407     -4.00812660024572
  C           0.82398787479187      3.62496931498213     -5.97534839504096
  H           0.21894239862695      2.75908290383607     -6.23212485088797
  H           0.28483853257877      4.52233110980678     -6.26876882140643
  H           1.76828612336502      3.57997454330234     -6.50922241279074
