47
Coordinates from ORCA-job /home/esp/scriptDevelopment/drFrankenstein/11_PCY_CHARMM/04_torsion_scanning/torsion_NH1-CT1-CG321-CG2R61/scans_PCY_conformer_1/PCY_conformer_1_forwards/orca_scan E -79.897652650300
  H          -2.27717109504997     -1.29891588984893      2.94142777665036
  H          -2.04214286948264     -3.24052732396328      4.17329121389837
  H          -3.15273312744463      0.48331492851067      1.48160026309108
  H          -2.58381511311722      4.79124317313468     -0.06882652286179
  H          -2.54717605137550     -1.67058913848408      1.20989498979259
  H          -3.43852040205955      2.74528465386042      0.62828650563544
  H           1.06068174059381      0.77279986351033      0.83701846823813
  H          -0.87580694077706      5.17431093706842      0.22535641590498
  H           0.44400905834483     -6.46513390613161      2.88085565837865
  H           0.77013887452190      3.06326068724313     -0.01082859839854
  H           0.83680039837645     -5.27730688154137      0.73817497296860
  H          -1.92043498802603      3.97243350800717     -3.55476518394135
  H          -1.02980362074507     -5.43877898290678      4.58355727621901
  N          -2.30295663500512      4.04340749573222     -2.60579028028699
  C          -1.33897169157295      4.46599339816341     -1.74173941764474
  C          -0.08402252925017      4.73350511041764     -2.42418551722047
  C          -1.55713427405283      4.48476748677950     -0.27063421961382
  O          -0.00843723444268      4.56666341712443     -3.66058855248483
  C          -1.36039616950813      3.07786091621209      0.26601058079973
  C          -2.44598917043819      2.32418115148110      0.68227404306022
  C          -2.28401334140691      1.03410448433041      1.15972022860648
  C          -1.01506250738197      0.47252638190965      1.21474757644766
  C           0.08188524452034      1.22408471538932      0.79215266401318
  C          -0.09232582147567      2.50733807189291      0.32131761684581
  O          -0.73041935155607     -0.78152661683038      1.66757426395998
  C          -1.80290046460166     -1.64740686077341      2.01625419155504
  C          -1.22289765114556     -3.02010481072155      2.21976457452573
  C          -1.42534709615779     -3.69577873238737      3.41474090840306
  C          -0.84680405679165     -4.93278641231084      3.64936314235675
  C          -0.02059599870202     -5.51048279812869      2.69697381517682
  C           0.20519788351553     -4.85443072728378      1.50413331200031
  C          -0.40656270783198     -3.62641985639065      1.25614250168445
  N          -0.17232113823669     -3.03779669754067     -0.01950189184259
  O           0.89291903535357     -3.28377828321407     -0.57515028536068
  O          -1.04287842429732     -2.34796312434634     -0.53408793914057
  C           2.25244841367361      5.46200766597175     -2.27077576119704
  N           0.96216355709165      5.17450597020365     -1.69569220982773
  H           0.85323098104843      5.32407774169841     -0.70576403678614
  H           2.19326632496999      5.26565685917959     -3.33983852245725
  H           2.51781484630785      6.50656871429389     -2.10744473612731
  H           3.01633626463645      4.82201064821150     -1.82764397687000
  C          -3.64141128262768      3.81271903532103     -2.43477302795130
  O          -4.22310191949232      3.95850429768215     -1.36778550276067
  C          -4.31864987460508      3.36724748022993     -3.70020190092772
  H          -4.18444501502053      4.11153307405553     -4.48094889407450
  H          -3.88432820196514      2.42915134136891     -4.03756378263669
  H          -5.37830585731049      3.22668383381978     -3.51010219979972
