47
Coordinates from ORCA-job /home/esp/scriptDevelopment/drFrankenstein/11_PCY_CHARMM/04_torsion_scanning/torsion_NH1-CT1-CG321-CG2R61/scans_PCY_conformer_1/PCY_conformer_1_forwards/orca_scan E -79.895420449580
  H          -2.02176352715449     -1.27563859165147      3.60639019319190
  H          -1.98865670062669     -3.55217261007472      4.09947368222318
  H          -2.81508421720215      1.09738525265470      2.56389375195253
  H          -2.37915998741663      4.79940239086745     -0.16699170700459
  H          -2.72401607201361     -1.01369996448595      1.98050374650056
  H          -3.04821362232289      3.26971699295124      1.48524018266880
  H           1.01093009802352      0.59083110627974      0.73202907123274
  H          -0.68724728724616      5.24554673528853      0.13302219797639
  H          -0.53934565884478     -6.44019002892839      1.30421242116922
  H           0.78089716381747      2.79956004506009     -0.34052209818019
  H          -0.33444118868372     -4.65426438436405     -0.40558097015002
  H          -1.15522841981311      3.01249247269369     -3.26840369854697
  H          -1.40146668095701     -5.87380227497978      3.55333933653510
  N          -1.62882227071411      3.19482406784299     -2.37927155722979
  C          -1.04518906382519      4.23606961842920     -1.72036967949106
  C          -0.01207818958529      4.87428002389450     -2.51801145175195
  C          -1.34013404182606      4.47865244024770     -0.28134552754786
  O           0.24156194406408      4.43434489205566     -3.66027797508776
  C          -1.16258358449372      3.18291424851907      0.48177330668644
  C          -2.15084264584986      2.69440881433274      1.32060718588962
  C          -2.02485931280078      1.45534407896636      1.92335066173845
  C          -0.89791461342974      0.68072769683059      1.68120958557796
  C           0.13013449103338      1.19369459261197      0.89265841413175
  C          -0.00735031085252      2.42922993024591      0.29855562582508
  O          -0.70339906819206     -0.57926632705788      2.17503436936725
  C          -1.84050008524653     -1.35971151307799      2.52921579851004
  C          -1.54430419310373     -2.78945200422121      2.16196788149379
  C          -1.64508725499144     -3.79940735106081      3.10761227767521
  C          -1.30496069753908     -5.10734149330991      2.80138402592975
  C          -0.82154832547733     -5.42775319020934      1.54168208017436
  C          -0.70169612295271     -4.43909552247637      0.58604773487233
  C          -1.08126147286038     -3.13192849124512      0.88528253868032
  N          -0.98130396371189     -2.17743219960791     -0.16754831740733
  O          -0.07619539058317     -2.32031457289914     -0.98399536523218
  O          -1.81295547216940     -1.28084674758010     -0.25479034026755
  C           1.66297813522511      6.65258185459099     -2.71951939539403
  N           0.63936608813948      5.93618294943810     -1.99967519115382
  H           0.37633364185762      6.29309139278715     -1.09576147293431
  H           1.80866016286107      6.15512387603101     -3.67683706054210
  H           1.35745683863467      7.68500550356625     -2.89130147825565
  H           2.59737458573705      6.64110404739770     -2.15821083677884
  C          -2.76479011579667      2.48924668261571     -2.07618917508543
  O          -3.52749227937323      2.82093351184695     -1.18077584528204
  C          -2.96614391654548      1.27219555124796     -2.93095967642329
  H          -2.56764849198686      1.40538310299846     -3.93095892247434
  H          -2.44931513301853      0.44106821441290     -2.44921195707600
  H          -4.02368377018627      1.02899518052459     -2.97197637070571
