47
Coordinates from ORCA-job /home/esp/scriptDevelopment/drFrankenstein/11_PCY_CHARMM/04_torsion_scanning/torsion_NH1-CT1-CG321-CG2R61/scans_PCY_conformer_1/PCY_conformer_1_forwards/orca_scan E -79.897103682550
  H          -0.49572273235265     -0.46544589037537      4.84944571286093
  H          -1.05192216791621     -2.73348662811703      4.77948582701208
  H           0.35265007366352      2.27932204897284      2.43452834864192
  H           1.35135660696042      2.02301677028143     -2.43294934717437
  H          -1.25495904727851      0.73182340511968      3.76336856523853
  H           0.28691262908825      3.17671006522370      0.14169047930042
  H           0.35838688382608     -1.69305050318624      0.88326168059804
  H           0.03314667202874      0.98941163264135     -2.90062062948250
  H          -3.59019901942879     -4.36886959244039      1.75739503738546
  H           0.24657466953923     -0.80130184232340     -1.41091117931966
  H          -3.68168212813222     -2.14494357184068      0.66259323902324
  H          -0.85945607539846      4.51626857862076     -3.71797890827604
  H          -2.29127508617454     -4.63822834836725      3.84756397874459
  N          -0.18670444456596      3.74708942564514     -3.61635187119717
  C          -0.50025416356527      2.99046291848188     -2.52985432260610
  C          -1.74932933694742      3.44783355997229     -1.92511803879240
  C           0.30576071337084      1.78865191878488     -2.19876115434815
  O          -2.20313714057458      4.56126684327527     -2.26896417855175
  C           0.24213444829205      1.25147364693945     -0.79749578585031
  C           0.28902410939496      2.10869942769843      0.29986443575430
  C           0.33063121978382      1.61163834952205      1.58685312301191
  C           0.35402169139216      0.23652160883996      1.79748862409131
  C           0.33142212751890     -0.62808400682469      0.70998130338295
  C           0.27252843415857     -0.11989203671251     -0.57482212054774
  O           0.43539510260711     -0.28051692968252      3.07974152274130
  C          -0.78978654707381     -0.25664760233396      3.82039472421516
  C          -1.69952130929279     -1.34367783333563      3.30462426985077
  C          -1.65028223911204     -2.60173972232371      3.89188362250068
  C          -2.33782987185847     -3.67884254989164      3.35797299075103
  C          -3.06782481418513     -3.53011801875767      2.18741883210254
  C          -3.12194377999150     -2.29711279480858      1.57241073206387
  C          -2.46060788958368     -1.20439234924059      2.13508932436792
  N          -2.60365628846307      0.03550323362726      1.46135401355093
  O          -2.68892233331652      0.01740972876065      0.23240511083166
  O          -2.66493936444058      1.08053716485643      2.10953631202907
  C          -3.62305320717709      3.03455021418202     -0.42110324437827
  N          -2.38862540661101      2.65021919216185     -1.05749931998564
  H          -2.05358584752436      1.71800666951747     -0.85355591955404
  H          -3.82402506480038      4.07630059356560     -0.66205452584736
  H          -4.44320841855701      2.41072149536569     -0.77948733142231
  H          -3.53019220994902      2.91058340852102      0.65853073139835
  C           0.89448426606143      3.72176179438171     -4.45965163599790
  O           1.78949548659533      2.89007107349802     -4.38152790780109
  C           0.85113282338911      4.81164739305129     -5.49102205898310
  H          -0.05212186465836      4.72056853391335     -6.08893745520861
  H           0.84673299185821      5.78451124109556     -5.00582537832755
  H           1.72198684940080      4.73178828404485     -6.13439022779690
