47
Coordinates from ORCA-job /home/esp/scriptDevelopment/drFrankenstein/11_PCY_CHARMM/04_torsion_scanning/torsion_NH1-CT1-CG321-CG2R61/scans_PCY_conformer_30/PCY_conformer_30_forwards/orca_scan E -79.891834881670
  H          -0.93287241392742     -2.84491621784949      2.07409115433196
  H           1.17188958911236      0.01708135896969      1.66040760551737
  H           0.89079320036276     -1.34710538949405     -1.63966389208176
  H          -2.88377883186441      1.02979240298969     -3.38090050003903
  H           0.77982326126446     -3.18130244610092      2.31370714843002
  H          -0.43011496885327      0.19236046735528     -3.04944134502220
  H          -1.95024676727005     -0.87369450031897      1.51385019957417
  H          -3.68580708497551      1.65788132700562     -1.93403003654231
  H           0.39944454226202      1.75939307413973      5.47918621445484
  H          -3.24361790931340      0.64173548274481      0.12926596935615
  H          -0.64524261191087     -0.36530794582453      6.21374096384053
  H          -0.53593609427330      3.98657640052690     -2.96763256192655
  H           1.32155049480227      1.92088452656720      3.18128264559954
  N          -0.79672178541967      3.18567705238326     -2.37573007048632
  C          -2.07767903833656      2.82784936935975     -2.66734303068043
  C          -2.68786296676727      3.78184062560199     -3.58973099748371
  C          -2.71008792197019      1.49944374408379     -2.40506772607798
  O          -2.04236542540430      4.79137949469833     -3.94325455616813
  C          -1.92327537017002      0.54428581735501     -1.55190906867229
  C          -0.76325383940057     -0.04186265491129     -2.04914533246914
  C          -0.01996347707471     -0.90187269573051     -1.27191767417945
  C          -0.42715981602908     -1.20377700187849      0.02699194490204
  C          -1.60521203012846     -0.65595733912494      0.51555722994210
  C          -2.34189743708102      0.20771912572488     -0.27578721990579
  O           0.40932845522029     -2.03400988027346      0.72674236963543
  C           0.06753067690325     -2.39378615407772      2.04554466571634
  C           0.17229700196140     -1.26427766124899      3.03899451709062
  C           0.77229487628669     -0.06979611788581      2.65810135108061
  C           0.85635835888729      1.00928501367790      3.51928654226060
  C           0.33955060296953      0.92122320075234      4.80482981857539
  C          -0.24576300759925     -0.25435674565827      5.21766774028532
  C          -0.32948749957755     -1.34935689389366      4.35039678836870
  N          -0.93167361140385     -2.52268335306804      4.86223209680734
  O          -1.53162466193047     -2.45608114444545      5.93600983993359
  O          -0.84248053156721     -3.57826491359257      4.23402861200086
  C          -4.63906350576321      4.43027652018523     -4.91998580015123
  N          -3.93838837037724      3.53807415659572     -4.02858208064151
  H          -4.43973481960208      2.73042529115136     -3.69752971144931
  H          -4.94547921066249      3.89842471785610     -5.82041212612749
  H          -5.51961589963924      4.84816051927226     -4.43103042876973
  H          -3.96020048922760      5.23773855610969     -5.18828216708956
  C           0.02588120205588      2.95371967954089     -1.29490943718345
  O          -0.32031449781891      2.35354907260387     -0.29280447159356
  C           1.39191964783668      3.54996219629152     -1.49116870874070
  H           1.31825533096435      4.63103878370245     -1.58070163790120
  H           2.01782289180500      3.30304676706888     -0.63948774462577
  H           1.84121176264508      3.15755431106294     -2.39948709169483
