47
Coordinates from ORCA-job /home/esp/scriptDevelopment/drFrankenstein/11_PCY_CHARMM/04_torsion_scanning/torsion_NH1-CT1-CG321-CG2R61/scans_PCY_conformer_30/PCY_conformer_30_forwards/orca_scan E -79.892031991800
  H          -3.12468921687442     -1.51853832638445      1.46448717660273
  H          -0.76144477608833     -2.09510314276417      4.14134564637286
  H           0.85548396680920     -1.66044181550835      0.94691089273280
  H           0.97284486387998      1.37138602272799     -2.58523847907881
  H          -2.60151838538542     -2.57992386679640      2.80506675620571
  H           1.47070123253739      0.06109297216258     -0.71846820627010
  H          -2.80359247763564     -2.35818111312822     -1.12727553860306
  H          -0.38029176858481      0.92424895268629     -3.68098512464761
  H           1.37834798907648      1.58826049170659      3.85299290862675
  H          -2.16367639326785     -0.68873045829209     -2.82785829508032
  H           0.01825891992819      2.19298437250644      1.88389527066849
  H          -1.13559064216819      4.16090366948312     -1.74639222549621
  H           0.94377559052314     -0.56011122286512      5.01665439143065
  N          -0.44957072160107      3.41407943157240     -1.81800392786887
  C          -0.94457029123714      2.19726950693877     -2.13027550872588
  C          -2.39015854945797      2.13062558921960     -2.46536941876503
  C          -0.07597143267977      1.09513018627719     -2.64221666406935
  O          -2.80127550079152      1.44118487894233     -3.39936209758367
  C          -0.33477551604091     -0.16105686676007     -1.84539969731022
  C           0.54670856387106     -0.48685724607800     -0.82311285230285
  C           0.20380280178244     -1.44082131958282      0.11500272362272
  C          -1.03945616725985     -2.05751033890845      0.04060057588066
  C          -1.85838590544671     -1.84171314815432     -1.05919772402754
  C          -1.49727118962032     -0.90193511455476     -2.00629181288751
  O          -1.50684469631023     -2.78253947059729      1.13017731702758
  C          -2.26262915774395     -1.92509793691752      2.00158393034423
  C          -1.37634222859290     -0.83162443869678      2.54998296475072
  C          -0.60237316687838     -1.14180276376345      3.66158034169980
  C           0.36933955408908     -0.28386048952758      4.14731397086347
  C           0.61128538415051      0.91876158189867      3.49986151997896
  C          -0.14301096317043      1.25962083697523      2.39984919945665
  C          -1.14593400391726      0.40799444825226      1.91974598820023
  N          -1.90767911103339      0.90999073827879      0.84471641922733
  O          -1.44816948672320      1.86258353822502      0.17009548017892
  O          -3.04327632649815      0.45449644809908      0.59083558479404
  C          -4.62308165809032      2.89789431905118     -1.87768790565543
  N          -3.18385473263023      2.95173995618089     -1.74007056433437
  H          -2.84212973387011      3.17498567312765     -0.81256664491427
  H          -5.05553061260911      2.16902872540734     -1.18800735148876
  H          -5.03533896028160      3.88339716601144     -1.67500549240411
  H          -4.85544215123901      2.59588102004280     -2.89700475070149
  C           0.82019509458163      3.73681359605859     -1.34669328253919
  O           1.70670798243719      2.91856883059821     -1.20688340354128
  C           0.95659870350463      5.19741530241970     -1.04453827900299
  H           0.28928773222967      5.47190465394050     -0.23106078610300
  H           1.98040368454891      5.40869431250502     -0.75130962209538
  H           0.69916385977879      5.78688185798416     -1.92044340316796
