47
Coordinates from ORCA-job /home/esp/scriptDevelopment/drFrankenstein/11_PCY_CHARMM/04_torsion_scanning/torsion_NH1-CT1-CG321-CG2R61/scans_PCY_conformer_30/PCY_conformer_30_forwards/orca_scan E -79.797656811950
  H          -2.77152893564338     -0.99315072294760      0.94486160620535
  H           0.04795064287912     -1.99818229971360      3.00305751780537
  H           1.13054949745796     -2.15945418068045      0.35492130805723
  H          -1.89300309083623      0.55293629355219     -0.48337861536045
  H          -2.62207093142852     -1.82820938166814      2.50075252292183
  H           1.47531789969198     -0.18967037534150     -1.04360868617608
  H          -2.74376690047508     -2.67986325475491     -1.33733193607812
  H          -0.22783245667425      1.09195881399487     -0.21185703802440
  H           1.81167300317374      1.86557351233155      3.48156150127916
  H          -2.37836464078142     -0.74666844022621     -2.79638119115351
  H          -0.08095251074151      2.84898940200418      2.25426896228559
  H          -0.76037647879271      4.03474397042213     -2.15881487581619
  H           1.86786290593503     -0.58706776821526      3.87341051698433
  N          -0.42924362405744      3.38691471753814     -1.44746028592738
  C          -1.42924673490050      2.49548681255550     -0.99959515301458
  C          -2.69049983820831      2.78653845708129     -1.85158946920812
  C          -1.03132147948781      1.01887802886141     -0.95583564347966
  O          -2.56977375659864      3.44669801070625     -2.88237084806575
  C          -0.55246147819247     -0.16063228788734     -1.78172234382374
  C           0.55873632614185     -0.75257688067822     -1.13916365247702
  C           0.35884725937969     -1.84598714160531     -0.32808641878582
  C          -0.94967396844917     -2.32416105833533     -0.19520142330825
  C          -1.81752633610362     -2.13051557860879     -1.28187883002483
  C          -1.60481778114298     -1.05216300868553     -2.10898521027935
  O          -1.45575864983495     -2.61710235939181      1.06553098993121
  C          -2.05951953183557     -1.43822331831686      1.64813268801124
  C          -1.05906526881316     -0.41205737608207      2.14939586617525
  C           0.02250811066858     -0.92904876101853      2.85412956949092
  C           1.04994478445815     -0.13834427219978      3.33358758423256
  C           1.01975899734264      1.23261030040500      3.11675303304032
  C          -0.03643597961792      1.78686767840648      2.43345457261966
  C          -1.08227137228881      0.99171433899832      1.93918366886189
  N          -2.08318191939524      1.67797921284560      1.26115725639011
  O          -1.73233070546317      2.75795033908412      0.45176144960316
  O          -3.27530303357386      1.23430898425540      1.13630909041645
  C          -5.08040655675357      2.42767425982233     -2.10495722870425
  N          -3.82264540324079      2.26513748788543     -1.41044636512378
  H          -3.85628885747703      1.81846665970843     -0.49083700861045
  H          -5.51729926835754      1.44927549343023     -2.29700338116052
  H          -5.76888883296114      3.01734984882871     -1.50126468357013
  H          -4.88810661507892      2.93956092764027     -3.04586255919922
  C           0.85260821673664      3.46127849136604     -1.00086337149255
  O           1.30012696578957      2.72415053858259     -0.13750498044421
  C           1.65642541392758      4.53689347006984     -1.67663302352011
  H           1.24020757174557      5.51071100070661     -1.43291746930682
  H           2.68422940436332      4.48660028882954     -1.33069757319792
  H           1.62224593751449      4.40380112644475     -2.75400043897840
