47
Coordinates from ORCA-job /home/esp/scriptDevelopment/drFrankenstein/11_PCY_CHARMM/04_torsion_scanning/torsion_NH1-CT1-CG321-CG2R61/scans_PCY_conformer_30/PCY_conformer_30_forwards/orca_scan E -79.806465899530
  H          -2.10522564608190     -1.46866081175946      1.17805450191747
  H           0.97251951043742     -1.37467741828261      3.13702968941583
  H           1.65550716082443     -1.24412148965458     -0.54387457157336
  H          -3.00098593734703      0.48313932768904     -1.41719710925354
  H          -1.43738666166002     -2.21676924666954      2.64266801939432
  H           0.88399669385887      0.36023820819084     -2.21159737947628
  H          -2.04643026480936     -3.31663004512765     -0.79819555521167
  H          -1.64240961863804      0.25128165003697     -0.31807946774271
  H           1.21984608225248      2.86816764181658      3.56863319027891
  H          -2.85817114518833     -1.67181148517993     -2.43181636614429
  H          -0.84455543177833      3.09260985183704      2.23674081063260
  H          -0.51665165858886      3.59618756189356     -1.76816788720298
  H           2.14270076223714      0.60768743205936      4.01026307895292
  N          -0.49701234160564      2.77040340729079     -1.17217854129017
  C          -1.78311225851946      2.17221729908345     -1.07138849927304
  C          -2.74751321629592      3.01922116519854     -1.92823896680205
  C          -1.92853893112562      0.66802838963113     -1.29156055497733
  O          -2.29532741656164      3.77796996197211     -2.77761419343465
  C          -1.17634067576519     -0.33085910967360     -2.12831924238475
  C           0.21576665108640     -0.41176121305072     -1.87019333801675
  C           0.65849373224449     -1.32660950083271     -0.94274012972677
  C          -0.28800306698993     -2.15640198320124     -0.32934695169577
  C          -1.42829123732659     -2.48058317273941     -1.08356175347484
  C          -1.87398547521846     -1.56715057050627     -2.00385444343421
  O          -0.24838483237849     -2.43449596963427      1.02574710074556
  C          -1.19087060986491     -1.61757133713993      1.76136141807890
  C          -0.60605603653653     -0.29878915997017      2.22809219769679
  C           0.56942201163018     -0.38805673270794      2.96502006345382
  C           1.23180907904111      0.72465747338686      3.44573241271150
  C           0.71946445310411      1.98926091667083      3.19497351775527
  C          -0.43339753445681      2.11919691439339      2.45715248926549
  C          -1.10975223537102      0.99489633537073      1.96389983346645
  N          -2.25315119555817      1.25507059671452      1.21735498880446
  O          -2.26144483136101      2.35301487461561      0.35266781644996
  O          -3.31514636837853      0.54907821305876      1.24263002374921
  C          -5.08944996188979      3.54135247343567     -2.35380450221069
  N          -4.03247399691261      2.83348482520359     -1.66648744361313
  H          -4.29151663019148      2.26517589228300     -0.87094194945828
  H          -5.79383880391189      2.82744985606577     -2.77680301913459
  H          -5.61279333044860      4.20155523550820     -1.66371159804869
  H          -4.63778427730397      4.12947544097554     -3.14974897221058
  C           0.68413589471592      2.42689368365571     -0.59810249755854
  O           0.83033576285362      1.44723479798307      0.11041069003007
  C           1.79633773618696      3.38605746385981     -0.93019669458229
  H           1.56693819980995      4.36731204364036     -0.52389787183655
  H           2.72092600133186      3.02151544695965     -0.49335145098204
  H           1.90683189644936      3.47308486564954     -2.00748089204896
