47
Coordinates from ORCA-job /home/esp/scriptDevelopment/drFrankenstein/11_PCY_CHARMM/04_torsion_scanning/torsion_NH1-CT1-CG321-CG2R61/scans_PCY_conformer_30/PCY_conformer_30_forwards/orca_scan E -79.854517568040
  H          -3.26614823649754     -0.69006469335273      1.23821560571216
  H          -0.67587608316491     -2.30074826818126      3.25938392193539
  H           0.34067703166520     -2.76403584695071      0.61991910580811
  H           0.52606044822658      1.19624317544689      0.03346127819052
  H          -3.11908096666967     -1.68194020338772      2.70764465584817
  H           1.47447595308871     -0.93220293892935     -0.53920978498495
  H          -3.30242910109453     -1.67381092822468     -1.28403737922973
  H           0.89996747041216      1.64035793272442     -1.60245639422965
  H           2.07196612326132      0.97341313408770      3.30863395295405
  H          -2.14369157633249      0.05092579948935     -2.54677837326602
  H           0.47307113807491      2.31348211743775      2.00309102382650
  H          -0.84066765666192      3.73608671711198     -2.53656434705747
  H           1.48190862269837     -1.34776318467913      3.96080720037092
  N          -0.45460385680921      3.57491483005748     -1.61442481083965
  C          -0.96129977496980      2.40912247850983     -0.93353526668993
  C          -2.21469757628777      2.17544771012813     -1.87161358395277
  C           0.08916962275483      1.27086713412979     -0.95754848182944
  O          -2.02273532238247      2.27400136505089     -3.08698471175670
  C          -0.31321866383559     -0.11217884349936     -1.40272530751850
  C           0.42224832585269     -1.09797901093335     -0.71496440119311
  C          -0.20776426125264     -2.12189051585027     -0.04916071509811
  C          -1.60186341745962     -2.15336624953710     -0.07029363958307
  C          -2.24940585104587     -1.50828490330286     -1.11870462447724
  C          -1.60074278248243     -0.49091287260475     -1.79477852684271
  O          -2.29879171075057     -2.52726183385397      1.07421849027617
  C          -2.59313946744060     -1.32846920558405      1.81786773557118
  C          -1.34287144271476     -0.57295959754611      2.23513723894381
  C          -0.42090258328242     -1.28723996933759      2.98898090236346
  C           0.79807564824686     -0.75613713217062      3.37447391578597
  C           1.13119658301455      0.54194590600137      3.00802802259407
  C           0.24601149222591      1.29017870921607      2.26765598553885
  C          -0.99479091010116      0.75464562926690      1.86889023524592
  N          -1.83691196785207      1.56670784038072      1.15254346195419
  O          -1.35174281052890      2.67435072351439      0.43585864975019
  O          -3.10054695210953      1.46052340435167      1.21288765911660
  C          -4.60111496758868      1.89619814200299     -2.15545136660502
  N          -3.41483594694594      2.04745811189209     -1.34071268036153
  H          -3.54829350302251      1.94832966138645     -0.32992686738175
  H          -4.99862680785685      0.88731663888436     -2.04591012974598
  H          -5.35066102969181      2.61543385356047     -1.83326519855288
  H          -4.33809453532656      2.07467578561683     -3.19632669452878
  C           0.55351616001049      4.34140359205562     -1.12719024306660
  O           1.08928142138038      4.10820113984430     -0.05469326968629
  C           0.93346341056897      5.48815263211107     -2.02429082713315
  H           0.10997292726553      6.19528184586177     -2.07627972383168
  H           1.80895880694431      5.98528546783129     -1.61839168470206
  H           1.14455857646715      5.12426471997302     -3.02550000764144
