47
Coordinates from ORCA-job /home/esp/scriptDevelopment/drFrankenstein/11_PCY_CHARMM/04_torsion_scanning/torsion_NH1-CT1-CG321-CG2R61/scans_PCY_conformer_30/PCY_conformer_30_forwards/orca_scan E -79.803069032500
  H          -2.11376607201132     -1.45488352276153      1.18495374762560
  H           0.99272881971112     -1.35805193878463      3.09586635745657
  H           1.64718389410921     -1.32631201603785     -0.64514349309837
  H          -2.94487367121693      0.47396642793934     -1.23265766059818
  H          -1.42773940856419     -2.20703697935405      2.63980617150811
  H           0.87706264352521      0.29861008387978     -2.29240892573433
  H          -2.13422525187157     -3.26203269368215     -0.75454655808626
  H          -1.46764106889689      0.30362712414566     -0.28282668659310
  H           1.24135677515421      2.88492119421295      3.52487780974353
  H          -2.94298415261140     -1.59716018721430     -2.36863541331050
  H          -0.85053369190173      3.10638027378310      2.23573365340805
  H          -0.52141294348855      3.67609741327035     -1.65147632109778
  H           2.17478743127770      0.62544683484834      3.94955729095188
  N          -0.50287665840715      2.82373179797215     -1.09552666499815
  C          -1.77898149021127      2.20203431735117     -1.03398550266428
  C          -2.74023779159471      3.01976697427399     -1.91814637903380
  C          -1.87033776419573      0.69216011847116     -1.22694876251847
  O          -2.28365295506801      3.79884347358319     -2.74678200449814
  C          -1.20652936552329     -0.31336094400306     -2.12875804093276
  C           0.19374816354640     -0.44866401659915     -1.92579315860429
  C           0.63363614652354     -1.37176834645108     -1.00621644665793
  C          -0.32394096300113     -2.15705250800308     -0.34891488136121
  C          -1.49718773961779     -2.44968956897295     -1.06562190397012
  C          -1.94172902839118     -1.52539276842985     -1.97444187806330
  O          -0.25437366788024     -2.41509517014373      1.00739294216635
  C          -1.19304160011403     -1.60506846936752      1.75724144220298
  C          -0.60578844117909     -0.28531202218843      2.21962575915535
  C           0.58379503004695     -0.37223652472778      2.93356296438619
  C           1.25318138489087      0.74141790915912      3.40252949372547
  C           0.73448016197279      2.00539718243684      3.16158848060206
  C          -0.43367475837715      2.13357973029306      2.44794938992534
  C          -1.11787894438370      1.00851023091022      1.96713207347110
  N          -2.27656197874958      1.27183101094381      1.24522056288045
  O          -2.29862418735795      2.36944981320967      0.38110774417936
  O          -3.30782448704369      0.52308583294069      1.22935415910735
  C          -5.08045764632034      3.46714896289658     -2.42837787807516
  N          -4.02731926371023      2.79054408600060     -1.70470318366402
  H          -4.29768667686972      2.21116256434485     -0.92134840376295
  H          -5.74572746407457      2.73276991504071     -2.87871028722916
  H          -5.64944389046929      4.10807821135104     -1.75645202254795
  H          -4.61894625700369      4.07199503178501     -3.20592793466071
  C           0.68652214965266      2.42381914112574     -0.57640295114191
  O           0.83075300207275      1.39553425169077      0.06072674015456
  C           1.80614175079077      3.38773340108580     -0.86370248930374
  H           1.59396678474042      4.34527465180406     -0.39625987667134
  H           2.73148905539854      2.98633974699465     -0.46227747846035
  H           1.90419608669316      3.53782996897670     -1.93525359531200
