47
Coordinates from ORCA-job /home/esp/scriptDevelopment/drFrankenstein/11_PCY_CHARMM/04_torsion_scanning/torsion_NH1-CT1-CG321-CG2R61/scans_PCY_conformer_30/PCY_conformer_30_forwards/orca_scan E -79.841737791210
  H          -3.21639224419874     -0.63529352504308      1.11674082125272
  H          -0.68217834641267     -2.31018667924858      3.16029967574294
  H           0.37587912546250     -2.76405066802994      0.52214303959237
  H           0.34233021085484      1.09812508658479      0.15704601900842
  H          -3.15480437168570     -1.62574116361540      2.59134466437934
  H           1.51089789544114     -0.93089270344253     -0.62796268575101
  H          -3.26749585196598     -1.66085977586899     -1.37195683567920
  H           0.94962584482063      1.66318448960110     -1.35770037048581
  H           2.02604715825516      0.98682802296713      3.43718601631475
  H          -2.11297717971942      0.08564535240469     -2.60739714349794
  H           0.44941238507652      2.36647436988976      2.13881924564215
  H          -0.84408130125177      3.68778012578962     -2.53934911894620
  H           1.44502640684925     -1.36768856707352      3.96497285101907
  N          -0.44513092168954      3.55640054485337     -1.61589971854726
  C          -0.97264469291763      2.43018454728459     -0.89283154443143
  C          -2.24619757226515      2.19084804773364     -1.80913642993090
  C           0.04599282404041      1.26475029135970     -0.87193236834238
  O          -2.08510267113583      2.32579529534862     -3.02593683197802
  C          -0.28291027518460     -0.08512036531192     -1.46068205158950
  C           0.45773576493374     -1.09205757643836     -0.80237564294061
  C          -0.17480570585806     -2.11583866001924     -0.13924728190233
  C          -1.57051027702383     -2.13743591098646     -0.14846982014485
  C          -2.21548695630973     -1.49430584199774     -1.20145669028106
  C          -1.56931895156776     -0.46739788801005     -1.86386791776437
  O          -2.26692246366695     -2.48761840242790      1.00382282447298
  C          -2.57994145004727     -1.28178365499441      1.72821157736122
  C          -1.34578820258847     -0.53972661974455      2.20956652981741
  C          -0.43273002392623     -1.28147631339184      2.94876098739943
  C           0.76859530577369     -0.75581139007216      3.39099548158034
  C           1.09685402136655      0.56176726253894      3.09472489099130
  C           0.22224396901797      1.33493288367839      2.36788192847988
  C          -1.00415503585777      0.80662673906336      1.91798398713437
  N          -1.84216880836270      1.64543749601789      1.22033210463814
  O          -1.35130846960960      2.73317610050478      0.47785947030563
  O          -3.10604977794998      1.55307745713940      1.30578326513812
  C          -4.62391467871277      1.82450465196698     -2.06391717596216
  N          -3.42989721013195      1.99482406498871     -1.26408004412728
  H          -3.55508821314072      1.90835157407803     -0.25033361186625
  H          -4.99174646655070      0.80375780868053     -1.96181971817335
  H          -5.38780891416247      2.51846411712289     -1.72058726401111
  H          -4.38268747056943      2.02434315696378     -3.10608805107762
  C           0.58114280886162      4.32252788425982     -1.17033703542560
  O           1.12428248714930      4.12593226492151     -0.09369736818618
  C           0.97482500222123      5.42093235139845     -2.12098036555527
  H           0.15974639377218      6.13406450367848     -2.20899692438176
  H           1.85604614084208      5.92650930133099     -1.73855499313803
  H           1.18259075972467      5.00600991356673     -3.10290037615308
