47
Coordinates from ORCA-job /home/esp/scriptDevelopment/drFrankenstein/11_PCY_CHARMM/04_torsion_scanning/torsion_NH1-CT1-CG321-CG2R61/scans_PCY_conformer_30/PCY_conformer_30_forwards/orca_scan E -79.895310425820
  H          -3.02347593698626     -1.65438037668061      1.51513145583978
  H          -0.60542036399985     -2.12172766030861      4.17203318263999
  H           0.94433214129260     -1.35280775544347      0.85000535435142
  H           0.87299202438945      1.32760227454833     -3.02304745283519
  H          -2.37326728842285     -2.73540985953451      2.78034888443561
  H           1.42540624050489      0.30643102120316     -0.92430760103940
  H          -2.72483688617235     -2.35264661339159     -1.07994755260367
  H          -0.60047363118751      0.81620987700105     -3.92076539239567
  H           1.11362289405239      1.78688203963639      4.08929955619079
  H          -2.23053317338121     -0.72323036261137     -2.86950690630598
  H          -0.27908733325576      2.32810554563016      2.11937518598688
  H          -1.06464140709719      4.07401803225733     -1.65782410647778
  H           0.91298025840787     -0.45103191690916      5.13838468233310
  N          -0.41451147946067      3.32111261658145     -1.86521075216589
  C          -0.97182208201583      2.21626847164579     -2.40495826466442
  C          -2.42249358559498      2.18900386781672     -2.62323328349462
  C          -0.18091277682062      1.07650534510285     -2.94541750442792
  O          -2.92724363551597      1.51700269362366     -3.52946413876594
  C          -0.38339288908568     -0.08597138012992     -1.99549532887166
  C           0.52780524816511     -0.29119309336952     -0.96842980137273
  C           0.25886851882639     -1.20981811925165      0.02839906345731
  C          -0.93490897226371     -1.92088752864623      0.00619440298823
  C          -1.80954643837168     -1.78079144493678     -1.06327352640804
  C          -1.52785998182753     -0.86875827352091     -2.06277960172013
  O          -1.28129056895458     -2.71130621787128      1.09450050679552
  C          -2.11528087716134     -1.99888830596392      2.01863951383157
  C          -1.34157534591230     -0.85686371761946      2.63236168026135
  C          -0.54665121905612     -1.13611457389368      3.73744089435950
  C           0.31966267032345     -0.19904993562000      4.27436574877625
  C           0.43250009086168      1.05383222632345      3.68947696970014
  C          -0.33857512197359      1.35955043803640      2.59001268226617
  C          -1.23385366777176      0.42394089889866      2.06067626962291
  N          -2.01434392523768      0.86961031557319      0.96894330469471
  O          -1.57913708417058      1.80405464703103      0.27482008905659
  O          -3.12273565652838      0.36569789891232      0.73678480290166
  C          -4.59965768403667      2.96694346010134     -1.86696442457290
  N          -3.15385112083998      3.00417679363482     -1.81273444421461
  H          -2.76959792598475      3.14018996259743     -0.88435448156335
  H          -5.00243567245197      2.20131147577314     -1.19876540361730
  H          -4.98837374752437      3.94175809868010     -1.58192056314818
  H          -4.89568628958638      2.72885046339833     -2.88680036252212
  C           0.88664833859777      3.53796928644501     -1.43799852038058
  O           1.77347848815508      2.70938568426001     -1.53099211339565
  C           1.07044483232541      4.91036180988835     -0.86224084936559
  H           0.40632218630837      5.05178553982471     -0.01334783968427
  H           2.09991030752102      5.02783083705340     -0.53822849107768
  H           0.84152952891866      5.66245551422409     -1.61320552339818
