47
Coordinates from ORCA-job /home/esp/scriptDevelopment/drFrankenstein/11_PCY_CHARMM/04_torsion_scanning/torsion_NH1-CT1-CG321-CG2R61/scans_PCY_conformer_30/PCY_conformer_30_forwards/orca_scan E -79.910364548380
  H          -2.92776086242594     -1.67860689047426      1.00535552249943
  H          -1.19749946951066     -1.88108879550146      4.15076987310266
  H           1.07368356654368     -1.57567062366883      0.97427563085332
  H           0.67126352676888      1.45740231489424     -2.73337889460421
  H          -2.64839157215030     -2.58726772933122      2.52097708293046
  H           1.49720866423988      0.21313795816216     -0.69264770792699
  H          -2.32194844707219     -2.85877797157209     -1.26437993143948
  H          -0.89545177193670      0.99260074537741     -3.46086416482094
  H           0.86165153792106      1.85061840993411      3.97989812119851
  H          -1.88814421805373     -1.09231852487808     -2.93702052514613
  H          -0.00757049237510      2.21393772193903      1.72425340696414
  H          -1.05223158372162      4.15628816968028     -1.87911122186200
  H           0.22348487873899     -0.19532815979344      5.23410724653098
  N          -0.45380651080326      3.36933097327251     -1.67252550357580
  C          -1.07002252191738      2.06479957328880     -1.61633528254714
  C          -2.56252712514065      2.18967700064997     -2.02971850090676
  C          -0.32192374288445      1.05601717751514     -2.53600774802421
  O          -2.98706002545486      1.70291105298567     -3.06481169583265
  C          -0.22690997738209     -0.27305145009305     -1.86091074847572
  C           0.68286726195143     -0.48215239167631     -0.83231656441560
  C           0.44467104389131     -1.47343143640298      0.10329625416411
  C          -0.71073669545219     -2.23924458816716     -0.00071824859255
  C          -1.47197005524305     -2.20155392915077     -1.16381502125010
  C          -1.22594076903021     -1.21392902109914     -2.09326164894175
  O          -1.22595004681781     -2.87316997683027      1.12324175422109
  C          -2.17856532726861     -1.98596812115765      1.74203674397732
  C          -1.47228322199911     -0.79745895340610      2.35003700222195
  C          -0.96195721975847     -0.96616741462397      3.62931770882514
  C          -0.14770279896101     -0.02559822026375      4.23678536259821
  C           0.20568894037293      1.11929109442031      3.53625724872204
  C          -0.28492914487663      1.32818387912472      2.26903356597387
  C          -1.15009881449386      0.39845354227126      1.65731675546782
  N          -1.64601057873566      0.71738689479742      0.41753547707332
  O          -0.98149351168591      1.79058712263028     -0.19662402520284
  O          -2.65948589821907      0.24103620950812     -0.15146078471805
  C          -4.69565731591817      3.15753617033205     -1.34279320390394
  N          -3.27066320270767      2.95541880507475     -1.19904651662131
  H          -2.85664952265524      3.23232895229620     -0.31956117004742
  H          -5.24173226581729      2.55759325797879     -0.61427425013030
  H          -4.92733621183696      4.21085555260387     -1.20192065304946
  H          -4.97900176088118      2.84309240729669     -2.34491077434031
  C           0.83318452130498      3.63230999867393     -1.30690739853045
  O           1.61957212893737      2.76978883455194     -0.96283089111790
  C           1.17750241038449      5.09553560367472     -1.37968571815335
  H           0.60061355179185      5.64661285371565     -0.64193897142895
  H           2.23550899558305      5.22080951288013     -1.17092191272520
  H           0.95154165475719      5.48521240856039     -2.36781507899287
