47
Coordinates from ORCA-job /home/esp/scriptDevelopment/drFrankenstein/11_PCY_CHARMM/04_torsion_scanning/torsion_NH1-CT1-CG321-CG2R61/scans_PCY_conformer_30/PCY_conformer_30_forwards/orca_scan E -79.910953700020
  H          -3.16506632180773     -1.29562904815405      1.14624973102916
  H          -1.21386327007437     -2.01877192514549      4.08753532594645
  H           0.75392406736069     -2.03635249359463      1.03493556822653
  H           1.06964313166271      1.43224803034225     -1.98447138708688
  H          -2.95679463138791     -2.30662076017493      2.60639467380765
  H           1.55590578996731     -0.24492173827984     -0.46547516072937
  H          -2.75197451469801     -2.44804731158628     -1.35554851795204
  H          -0.18263554083031      1.22813474531179     -3.24894452467794
  H           1.38603520431893      1.36270833706211      3.95446344706194
  H          -1.91719325088835     -0.71521896526064     -2.89830750286998
  H           0.40025774270811      2.02162449959036      1.80953134483888
  H          -1.20842583333270      4.06627721331280     -2.14404918724639
  H           0.54729158045613     -0.65904700247954      5.12602350554452
  N          -0.51424437912073      3.45996484287440     -1.73312848692707
  C          -0.90223876810987      2.09790163214252     -1.44258311618756
  C          -2.36913072524177      2.02304439702439     -1.96417771996542
  C           0.04726129976824      1.11934062700321     -2.18785975960303
  O          -2.65852210797249      1.44824166758061     -2.99980825012216
  C          -0.19384286570523     -0.27484968929097     -1.70138986960368
  C           0.62210053483359     -0.74532216395577     -0.67467008373535
  C           0.17845461323308     -1.74132908739724      0.17122143175782
  C          -1.10596341504557     -2.24241893908034     -0.00465912921137
  C          -1.79660585380759     -1.97768185316090     -1.18255248668799
  C          -1.32861347490651     -1.00204713322508     -2.04170055136513
  O          -1.75853726817643     -2.82251169822909      1.07614069833069
  C          -2.43761976224349     -1.78043151150156      1.80441483781328
  C          -1.46223802009662     -0.77922697557577      2.38672326836127
  C          -0.87879106603754     -1.11671643350642      3.59905613572218
  C           0.12424801657575     -0.35889374978604      4.18141843467756
  C           0.59150297537422      0.77284737972076      3.52708147758049
  C           0.03855381363408      1.14779811388896      2.32541813447535
  C          -1.00340880067691      0.40119257002056      1.74038288904483
  N          -1.52945798646504      0.86531980626918      0.56619492535690
  O          -0.85255130681119      1.95660492157077     -0.01461752691402
  O          -2.59425435097103      0.48655597321174      0.01591337767281
  C          -4.61349053285824      2.89794013741408     -1.58225047650253
  N          -3.19815887290724      2.83025074294684     -1.29162083860872
  H          -2.90625641791287      3.17525345660640     -0.38772487027185
  H          -5.17893598410665      2.27704030110373     -0.88634275751287
  H          -4.94461875746723      3.93123068134202     -1.51012565573520
  H          -4.76503203866022      2.52484253457174     -2.59281918436346
  C           0.67023322688555      4.01232337481081     -1.34454151549719
  O           1.53175671209684      3.38389628955783     -0.75647041732230
  C           0.80114074886325      5.46301550511466     -1.72087497243303
  H           0.07865870214666      6.05393730042681     -1.16445099264960
  H           1.80297457746053      5.80362499458400     -1.47843606270357
  H           0.61755338097424      5.59084840397928     -2.78351820276258
