47
Coordinates from ORCA-job /home/esp/scriptDevelopment/drFrankenstein/11_PCY_CHARMM/04_torsion_scanning/torsion_NH1-CT1-CG321-CG2R61/scans_PCY_conformer_30/PCY_conformer_30_forwards/orca_scan E -79.806280814750
  H          -2.97993494173224     -0.67569342954717      1.00430196430865
  H          -0.33679221614823     -2.11751118639652      3.08549697145300
  H           0.76452437595080     -2.50929359347691      0.21351660094087
  H          -1.19733833452126      0.57477899066520     -0.07236501710300
  H          -2.91284440115416     -1.66035610701021      2.47724843943908
  H           1.56908777083254     -0.61235916165087     -1.11319233087703
  H          -3.13251637514066     -1.99613192986917     -1.40545089788261
  H           0.37958723621444      1.30670998423455     -0.35166001094489
  H           1.95638056275059      1.46058985764027      3.54523987492028
  H          -2.32284535298623     -0.14694519373702     -2.81199498155680
  H           0.23970215094473      2.69671175062427      2.28082437409088
  H          -0.81949288990392      3.88012251539268     -2.34522964084942
  H           1.64686357022757     -0.96265547408725      3.98046069888490
  N          -0.40226758584280      3.46054996689163     -1.51649879969724
  C          -1.23300335447608      2.48800654043304     -0.90387802243567
  C          -2.51643815142330      2.48271458557083     -1.80011390501302
  C          -0.59699577721471      1.10258482114869     -0.81383309145346
  O          -2.42416488974529      2.94606708915834     -2.93733598815534
  C          -0.41037541385239     -0.03423041074636     -1.77560434105910
  C           0.53705801617476     -0.91627823106792     -1.18558681767209
  C           0.08598514470649     -1.96575209824234     -0.42242731144581
  C          -1.29978346485234     -2.11208008288259     -0.27172974774713
  C          -2.10857090410978     -1.66616789791581     -1.33385943283205
  C          -1.65567151256984     -0.63932752886100     -2.12299913747624
  O          -1.83736347693793     -2.42940452461585      0.96260425641208
  C          -2.31721919239185     -1.25396481342344      1.65635606910970
  C          -1.20545125964014     -0.38961744336028      2.22627739745011
  C          -0.21701220610558     -1.05444841762521      2.94094263893206
  C           0.90525629720818     -0.40877723186408      3.42825798607266
  C           1.07797735272645      0.94740164982293      3.18971648080168
  C           0.11734891964743      1.64638413961641      2.49326828919851
  C          -1.03416116235203      1.00414779214213      2.02417484141559
  N          -1.95706270151106      1.79119936695790      1.33873423963821
  O          -1.53117817176554      2.82967815330319      0.50947469961192
  O          -3.20345094665473      1.49984006600237      1.30443811916995
  C          -4.84006932504207      1.83918382146148     -2.06639443558094
  N          -3.61248224510646      1.93663140290113     -1.30723195786302
  H          -3.66762501759702      1.69033410899326     -0.31152174631299
  H          -5.16363977625563      0.79984008575685     -2.09346720444083
  H          -5.61575319794013      2.44513681094076     -1.60096792210134
  H          -4.65349692575878      2.19691481998732     -3.07713862031168
  C           0.80898407326540      3.87022101318467     -1.06216390870945
  O           1.32968235357444      3.40729181349404     -0.05897264687930
  C           1.44129367479890      4.93406372547450     -1.91622717411724
  H           0.83948696681266      5.83801775191689     -1.87797471418598
  H           2.43793935058264      5.14787823851557     -1.54276436366974
  H           1.49687335431433      4.59596389414909     -2.94676977347670
