47
Coordinates from ORCA-job /home/esp/scriptDevelopment/drFrankenstein/11_PCY_CHARMM/04_torsion_scanning/torsion_NH1-CT1-CG321-CG2R61/scans_PCY_conformer_30/PCY_conformer_30_forwards/orca_scan E -79.912423193910
  H          -3.03397933028113     -1.52910963638193      1.06654589377247
  H          -1.20667620692702     -1.90742610868975      4.14256544760175
  H           0.96203470627658     -1.75736928569730      0.99436942481490
  H           0.84262624300732      1.44944112873559     -2.48971490777774
  H          -2.77534601245570     -2.47404144942763      2.56338120176168
  H           1.53605563900292      0.03399069221210     -0.62086517261313
  H          -2.52501365503824     -2.68643877535548     -1.27867548120480
  H          -0.63610924591426      1.07518627029773     -3.42934912833892
  H           1.09846727776424      1.67728298981724      3.94873693008906
  H          -1.93525639026661     -0.92485648512049     -2.90909177856076
  H           0.17796402695039      2.13613818841113      1.72908978711921
  H          -1.10895118766195      4.14066003371625     -1.96512035728103
  H           0.36615231017651     -0.34150042925408      5.19516629644889
  N          -0.47251086712562      3.40699896575804     -1.68890313243074
  C          -1.00738855621392      2.07067020510864     -1.57405948132423
  C          -2.49359371445207      2.10550691454883     -2.02570757994567
  C          -0.17961691375452      1.07792451041209     -2.43959375629946
  O          -2.86925318578720      1.55271504142228     -3.04623286752792
  C          -0.21764595349470     -0.27491639357297     -1.80723240467423
  C           0.66575714968765     -0.58507658801804     -0.78053841645460
  C           0.34550339978463     -1.57823402734374      0.12694585913964
  C          -0.87030791548094     -2.24022021107158      0.00216031048086
  C          -1.62250285669439     -2.10707573915959     -1.16015576679367
  C          -1.28938166753935     -1.12318997268407     -2.06741779006676
  O          -1.43321326877023     -2.85801712415969      1.11214745713200
  C          -2.28652478126644     -1.90298884706703      1.77341118574847
  C          -1.46938159782469     -0.77907068045475      2.36777364047066
  C          -0.92673210540751     -1.00297458662982      3.62481639984706
  C          -0.02794665587303     -0.13006292576015      4.21472564490097
  C           0.37847884461399      1.00003462001768      3.51874241404191
  C          -0.14024681240820      1.26316301491398      2.27292788710729
  C          -1.08740023765699      0.40352108399235      1.68098957822777
  N          -1.60108982137243      0.77165903313992      0.46404182486798
  O          -0.92486461877211      1.83807762783791     -0.14957330199217
  O          -2.64800685759750      0.34410707936197     -0.08405031822465
  C          -4.67833366942389      3.03095945931801     -1.45584465926397
  N          -3.25077239572594      2.89860407567477     -1.26433304530419
  H          -2.87895493979092      3.22223033893070     -0.38201376020332
  H          -5.21974130229416      2.43115174259591     -0.72351603005645
  H          -4.95917889113002      4.07708503271942     -1.35801197000980
  H          -4.91665877138609      2.67079313368426     -2.45426326107311
  C           0.78028212017678      3.76923271295625     -1.29138133652880
  O           1.59877856385877      2.97659015262737     -0.86310681271987
  C           1.04369694384144      5.24303286143733     -1.44364201292363
  H           0.40962475255394      5.80257980574518     -0.76123705449471
  H           2.08441717343849      5.44291327592516     -1.20795324295963
  H           0.83177123465418      5.55828927453001     -2.46097235652455
