47
Coordinates from ORCA-job /home/esp/scriptDevelopment/drFrankenstein/11_PCY_CHARMM/04_torsion_scanning/torsion_NH1-CT1-CG321-CG2R61/scans_PCY_conformer_30/PCY_conformer_30_forwards/orca_scan E -79.819657537060
  H          -3.05827789969458     -0.68505377942382      1.05930295491041
  H          -0.49446561963390     -2.17593260141600      3.20893428720333
  H           0.62442606122320     -2.72558909212392      0.12902547029866
  H          -0.48476272814214      0.68775269371361      0.12613326397144
  H          -2.99551102807145     -1.69513795999668      2.51918054820339
  H           1.56468221999279     -0.88933845429039     -1.18897561710037
  H          -3.26191394636780     -1.75081599001834     -1.28218833815427
  H           0.78296423115594      1.47174711993721     -0.76864415191667
  H           1.94424097497806      1.31553728383759      3.58107963337409
  H          -2.32322269406404      0.04678792133233     -2.65804014437441
  H           0.31854294390021      2.57263836079820      2.21777869105905
  H          -0.81750850078655      3.75331758950409     -2.45774414373250
  H           1.51802814803796     -1.07261556309498      4.10211953816387
  N          -0.40760180126603      3.48134914679563     -1.56866163889306
  C          -1.10294167500763      2.42323874500960     -0.90782186421481
  C          -2.37713082785616      2.29479751352079     -1.82453880143841
  C          -0.26176555897165      1.14117006388286     -0.83484605256937
  O          -2.23096232753733      2.54672679545336     -3.02284896569343
  C          -0.36508049291287     -0.06658902757643     -1.72524447108516
  C           0.50176236344175     -1.06909237598639     -1.20922590501894
  C          -0.02256552039711     -2.08833146829571     -0.45066000612076
  C          -1.40863538886882     -2.11492613475954     -0.24629566271453
  C          -2.20639814473087     -1.53337650121032     -1.24142866321908
  C          -1.68348696961055     -0.51152962068174     -1.99666861575829
  O          -1.93756838742204     -2.45303146169328      0.98494796409303
  C          -2.40350876871264     -1.28350247051153      1.69889067734432
  C          -1.27132286929755     -0.44846033672582      2.26481466198299
  C          -0.32489219555433     -1.12620795990164      3.02379356581086
  C           0.81424395597906     -0.51071211984235      3.51019859111142
  C           1.05352607785687      0.82730002402468      3.22110449712774
  C           0.14466658873767      1.53850411681418      2.47322883480667
  C          -1.02807422614848      0.92552668839142      2.00072483102137
  N          -1.91464473887023      1.72088648947398      1.28792379499745
  O          -1.46012814495538      2.76626487512866      0.47930843689013
  O          -3.17055512701016      1.50189431859074      1.29648265128493
  C          -4.74505514064656      1.84576750728747     -2.06778326331632
  N          -3.53684735216821      1.97838020159009     -1.28314156317133
  H          -3.62918651022291      1.81862982632461     -0.27353498325010
  H          -5.10012651016242      0.81671755690585     -2.02108640221853
  H          -5.51105742331326      2.50852459635032     -1.67044948299393
  H          -4.52481437117243      2.11294702481317     -3.09962925567289
  C           0.70746542003253      4.09096196862446     -1.09554163143964
  O           1.23195065813968      3.77504038524153     -0.03817735267256
  C           1.22861344143465      5.17752516709042     -1.99604588711593
  H           0.50625446176857      5.98779232579064     -2.04409395408442
  H           2.16592546457083      5.55356368071083     -1.59791673617769
  H           1.38174987832644      4.78692293061057     -2.99775933953774
