47
Coordinates from ORCA-job /home/esp/scriptDevelopment/drFrankenstein/11_PCY_CHARMM/04_torsion_scanning/torsion_NH1-CT1-CG321-CG2R61/scans_PCY_conformer_30/PCY_conformer_30_forwards/orca_scan E -79.878719489080
  H          -3.32248275819675     -0.82153383413919      1.48797574191389
  H          -0.64855653221120     -2.23032172801979      3.52652187662840
  H           0.33458850420677     -2.72625939297157      0.76261986378877
  H           0.79737444480424      1.31497647293340     -0.34903235882809
  H          -3.00491273061945     -1.82480220160082      2.92687971933901
  H           1.43163245063401     -0.91103774683713     -0.47050100821886
  H          -3.36209595528115     -1.70586392889612     -1.08169166902277
  H           0.70433667776454      1.54253115244657     -2.08790482657637
  H           2.11884777862635      1.00168095517684      3.14090060073840
  H          -2.24212302483017     -0.01348601829736     -2.42651760379520
  H           0.50844387679259      2.19672929773282      1.72919813705632
  H          -0.90872973427726      3.90951219368356     -2.45822178429479
  H           1.52692115132087     -1.22305184589850      4.07172581063381
  N          -0.47413687458088      3.59150551640979     -1.60501867573711
  C          -0.95594645367527      2.34583146913674     -1.04958240724825
  C          -2.17646770649643      2.15615936899131     -2.02160246146869
  C           0.12552717178936      1.25154006428406     -1.20160601465357
  O          -1.93689395721757      2.17820188653693     -3.23017901831141
  C          -0.37483753624878     -0.16013959026141     -1.34969939675356
  C           0.37762141308029     -1.09145627282282     -0.61745452055818
  C          -0.22860538912773     -2.10686761443314      0.08406093979003
  C          -1.62015254447254     -2.17115705158844      0.07256920078367
  C          -2.30451188250729     -1.53513891740040     -0.95531958956289
  C          -1.67480231909972     -0.53889584064478     -1.68011941818135
  O          -2.28777091427704     -2.60451742182148      1.21234897369704
  C          -2.57672679379152     -1.43293730820187      2.00227083082371
  C          -1.32424947417358     -0.63035488972572      2.31653809935913
  C          -0.39445012925469     -1.25756948641985      3.13347410108994
  C           0.83619714249829     -0.69675456690869      3.43343544297760
  C           1.16947653479330      0.54601086794205      2.91096628422698
  C           0.27541571300883      1.21134680287481      2.10577687365186
  C          -0.97608082064049      0.64573462182249      1.79035661098152
  N          -1.81728803053199      1.37655787261040      0.99845359307901
  O          -1.34246905364340      2.51658247649977      0.32958751897313
  O          -3.07191081554725      1.20501130780960      0.95359578119282
  C          -4.57559697169574      2.08427047118717     -2.34521080966683
  N          -3.39629458789524      2.18191019359346     -1.51259205146080
  H          -3.53799427732856      2.05209961731343     -0.50963186973209
  H          -5.04655668068821      1.10988510141126     -2.21513021948947
  H          -5.27816959399528      2.86469530812073     -2.06177504456635
  H          -4.27811218588767      2.21021082884689     -3.38467104856027
  C           0.53749607952793      4.30607701702842     -1.04577887009573
  O           1.11086411867407      3.93857336343906     -0.03328169151469
  C           0.87079136129679      5.57125457351845     -1.78733450433821
  H           0.04287070774629      6.26998639262761     -1.70074196469675
  H           1.76137558065623      6.01578844381166     -1.35425540252260
  H           1.03817502097215      5.35545201909985     -2.83842177087016
