47
Coordinates from ORCA-job /home/esp/scriptDevelopment/drFrankenstein/11_PCY_CHARMM/04_torsion_scanning/torsion_NH1-CT1-CG321-CG2R61/scans_PCY_conformer_30/PCY_conformer_30_forwards/orca_scan E -79.801153652730
  H          -2.90352071758575     -0.79301430418119      0.96741459778063
  H          -0.17864545536174     -2.08154651801390      3.02305435795781
  H           0.91476333243180     -2.35543565469938      0.32791921662631
  H          -1.52682327804826      0.56473360530978     -0.22703234549798
  H          -2.80742051400717     -1.71197872929938      2.47901285219266
  H           1.54402406966091     -0.40785731158180     -1.01197056215335
  H          -2.96423500119547     -2.30830230103631     -1.42191197385250
  H           0.10805672552538      1.22682229731664     -0.25519939004217
  H           1.91408897082915      1.61275868788650      3.51791280643793
  H          -2.31952297959225     -0.40729951431800     -2.83709093832698
  H           0.12012924828719      2.76469124197738      2.28613335705966
  H          -0.80890774932803      3.95893645358683     -2.27450883167647
  H           1.74935124365085     -0.83311485576344      3.91207454827530
  N          -0.41495574302143      3.43795630505911     -1.49296894483625
  C          -1.32282265173154      2.50741600707619     -0.93496134669735
  C          -2.60693652459587      2.63077533844675     -1.81078105947615
  C          -0.79994581907172      1.07426030912981     -0.85789382607799
  O          -2.51938652381597      3.20453394352563     -2.89626043175027
  C          -0.45610864869127     -0.07947737009885     -1.76351103114392
  C           0.55853989048054     -0.83369632012778     -1.12103740389876
  C           0.20229094504089     -1.91298100040487     -0.34786954981181
  C          -1.16203474093213     -2.20974943220936     -0.23998082266976
  C          -1.97983043607851     -1.87714989361997     -1.33472158313894
  C          -1.61390910712521     -0.82195806186905     -2.13451032303345
  O          -1.70946937500128     -2.51153758659539      0.99787936845437
  C          -2.22189048503260     -1.32208056317159      1.64237988263794
  C          -1.14397965016134     -0.39743804281585      2.18211901076882
  C          -0.11469526520138     -1.01268939877763      2.88481967325131
  C           0.97449951718479     -0.31378982717240      3.37202326959388
  C           1.06677115245233      1.05416876433453      3.15579767982679
  C           0.06341605912073      1.70454706460966      2.47463252706539
  C          -1.04943388499214      1.00511613537624      1.99025968009384
  N          -2.00573730878032      1.76075573821492      1.31700112885063
  O          -1.60725704954517      2.81751495567671      0.49646155536061
  O          -3.23516101173179      1.41023350655510      1.24926610392725
  C          -4.95167068294544      2.06633248672430     -2.08430573498345
  N          -3.70476644691311      2.05757168592977     -1.35135583507856
  H          -3.74121699735924      1.71770664604584     -0.38429387320940
  H          -5.31313855923076      1.04498974057216     -2.19073252312878
  H          -5.69530867959756      2.65763434115556     -1.55201082558551
  H          -4.77228905301843      2.50145771590950     -3.06551417323468
  C           0.83960946793636      3.70282953890830     -1.04575774704416
  O           1.33978592856123      3.12382347829369     -0.09427156592751
  C           1.54507985806729      4.76737135239107     -1.83908992667598
  H           1.03194336536603      5.71682901228537     -1.71196828734300
  H           2.56721239052210      4.85954945266953     -1.48509862418578
  H           1.54048817457546      4.50775088078926     -2.89357213568020
