47
Coordinates from ORCA-job /home/esp/scriptDevelopment/drFrankenstein/11_PCY_CHARMM/04_torsion_scanning/torsion_NH1-CT1-CG321-CG2R61/scans_PCY_conformer_30/PCY_conformer_30_forwards/orca_scan E -79.896844517270
  H          -2.96884112151039     -1.42767208301914      1.48108237478044
  H          -0.59090070244021     -2.04739335684228      4.13054771845524
  H           0.99868948613863     -1.12630964511362      0.66604496774702
  H           0.83295584818439      1.29824289488940     -3.40492298844246
  H          -2.34184773756148     -2.56211796132188      2.71003653005689
  H           1.46111646677987      0.38610203399679     -1.23565866975753
  H          -2.77594862299188     -2.13180666511309     -1.04591491265370
  H          -0.69209792013140      0.76579871908450     -4.19930056829768
  H           1.09249692569874      1.87014057983525      4.36213137012093
  H          -2.31787911338273     -0.62532113372308     -2.94636681602429
  H          -0.26566571373181      2.53991532439506      2.41447042520184
  H          -1.08518696234839      3.78726970992087     -1.45391912157182
  H           0.90040468959254     -0.44307491250152      5.23900168204076
  N          -0.43116893484639      3.12918068048515     -1.86833052101160
  C          -0.97559290966945      2.20433383115185     -2.68090819418703
  C          -2.43739378299052      2.19474061060214     -2.86641629466993
  C          -0.21902247096029      1.06590868809479     -3.26415611465940
  O          -2.95125320053637      1.74037134205997     -3.89397454728203
  C          -0.40597762719196     -0.00601404695915     -2.20551984653865
  C           0.53606565368350     -0.16803553635184     -1.19763985781265
  C           0.28062478059206     -1.01008088963812     -0.13150479434894
  C          -0.92642744034729     -1.69506323050533     -0.06414646019296
  C          -1.84857805783158     -1.58253418193879     -1.09853301938582
  C          -1.58669688574375     -0.73992716070029     -2.16000155936894
  O          -1.21580885123764     -2.46487833135933      1.05044145437321
  C          -2.07079562150498     -1.79326225374337      1.98527165424565
  C          -1.30456877592666     -0.68534002484127      2.66641640113794
  C          -0.52855604804765     -1.03429398808856      3.76506088256865
  C           0.32120584234900     -0.13372350664752      4.38413938070938
  C           0.42991259544352      1.16042750571420      3.89475175937179
  C          -0.32104551547039      1.53647178624687      2.80491167483933
  C          -1.19460214967933      0.63336553487114      2.18307052195991
  N          -1.93901646336543      1.14392775892230      1.10277026909026
  O          -1.55383518072704      2.20459271634475      0.56853759643616
  O          -2.96780083849037      0.58087784443844      0.69989476254891
  C          -4.59937253770665      2.68420129304255     -1.85024669384713
  N          -3.15484165481572      2.74547593352259     -1.85694469365748
  H          -2.72212476463339      2.75879081750740     -0.93605363087350
  H          -4.94659283666594      1.88577745670018     -1.19101528889851
  H          -4.99676442108992      3.63683154736900     -1.50450202299332
  H          -4.93910316540726      2.48556388219792     -2.86497440276639
  C           0.88583089740025      3.31019043684794     -1.46736130270932
  O           1.81342946254723      2.63752382949283     -1.87764877580016
  C           1.01630485410500      4.43320375910084     -0.48522395945620
  H           0.32142146402664      4.27748888233296      0.33652018134869
  H           2.03384807801317      4.46974334739373     -0.10930599765795
  H           0.78003098442973      5.37836016184676     -0.96863055216759
