47
Coordinates from ORCA-job /home/esp/scriptDevelopment/drFrankenstein/11_PCY_CHARMM/04_torsion_scanning/torsion_NH1-CT1-CG321-CG2R61/scans_PCY_conformer_30/PCY_conformer_30_forwards/orca_scan E -79.888653902810
  H          -3.25590261801959     -1.10384819539758      1.22491169341698
  H          -1.05734612122243     -2.22319249235749      3.87280297898042
  H           0.56025048977440     -2.42833682418015      1.01440038792651
  H           1.10553614178948      1.40690123831232     -0.98242969432674
  H          -3.06598788884929     -2.15049877356776      2.66019176692976
  H           1.57455079790372     -0.60426106852465     -0.27787651222614
  H          -2.92210016127687     -2.17040419503315     -1.42374915148456
  H           0.49911998144839      1.45005108848757     -2.64623615936621
  H           1.65457659832811      1.07377309845127      3.84055834770488
  H          -1.86113799954247     -0.44651077758315     -2.79445819791279
  H           0.46966200973259      2.01086867641124      1.90653286920409
  H          -1.29250184461249      3.96685955830163     -2.30061699529363
  H           0.87048658950476     -1.05651279809445      4.84676179302396
  N          -0.56335230231494      3.49364793439608     -1.78896054783359
  C          -0.86638675949223      2.20376732889270     -1.20900618392307
  C          -2.27190037267840      2.03475474109733     -1.88474537198428
  C           0.24306879787511      1.19674047818914     -1.61129288312767
  O          -2.40555129173766      1.52846482910334     -2.98652406289406
  C          -0.15768089190196     -0.24632747435139     -1.49520018871207
  C           0.58663885683703     -0.95347040341389     -0.53960940973140
  C           0.02850152312691     -1.97412441228159      0.19358443710956
  C          -1.31519832233500     -2.26882641037380     -0.01374228158660
  C          -1.92621996817307     -1.83265409797635     -1.18324302436295
  C          -1.33310956175469     -0.83820613866859     -1.94273845123574
  O          -2.05474693622318     -2.78564786810399      1.04384561166278
  C          -2.54535312276872     -1.67790828665034      1.82558006375787
  C          -1.42838868505704     -0.79426638420005      2.35448399543708
  C          -0.73278065863843     -1.28475584723558      3.44974937801395
  C           0.36164891293866     -0.63342399201989      3.99618543295771
  C           0.79964739277152      0.55833956316022      3.43411209950044
  C           0.13837319814280      1.08643604760157      2.35110633514417
  C          -0.98075277758452      0.43684333380899      1.79388422960327
  N          -1.58967423014224      1.03329466354456      0.72940222935405
  O          -1.00989181051390      2.22639070522963      0.22173749835442
  O          -2.64899203027109      0.64800136029590      0.17459391646565
  C          -4.57898043070537      2.81065328668746     -1.77300775614072
  N          -3.21314812394557      2.78652988868118     -1.29875579091282
  H          -3.06097586482556      3.09279135993148     -0.34791847653566
  H          -5.20027127581635      2.12923983529550     -1.19034511301635
  H          -4.96625122542647      3.82358580643689     -1.69286863547912
  H          -4.57828471653447      2.48959845685071     -2.81255799737949
  C           0.54830013342818      4.21752858295345     -1.45665101206779
  O           1.40378891549709      3.79346529558450     -0.70168905967788
  C           0.60749947005577      5.56373298821549     -2.12328395545779
  H          -0.15756229191619      6.21166008460029     -1.70323836365897
  H           1.58308987147735      6.00602611009300     -1.94731438943583
  H           0.43472060364839      5.46120009940042     -3.19038539878361
