47
Coordinates from ORCA-job /home/esp/scriptDevelopment/drFrankenstein/11_PCY_CHARMM/04_torsion_scanning/torsion_NH1-CT1-CG321-CG2R61/scans_PCY_conformer_30/PCY_conformer_30_forwards/orca_scan E -79.898638422030
  H          -3.23788507091788     -1.13667671648854      1.19706209078474
  H          -1.16561611420324     -2.15369109893800      3.97320531092283
  H           0.59431490529363     -2.27623962571391      1.04231579294076
  H           1.16528593047031      1.41929211463755     -1.39083870963694
  H          -3.05727889240421     -2.19259329467114      2.62746378960061
  H           1.56202752256956     -0.47544152929609     -0.32492637777376
  H          -2.86783266267624     -2.26010519769274     -1.44075517129377
  H           0.26247698129122      1.37640431472386     -2.92546281759675
  H           1.55350521721200      1.13644684050177      3.94281510002796
  H          -1.85390952677987     -0.54876649883528     -2.87657302255578
  H           0.48336279119627      1.98474010566056      1.90336868504859
  H          -1.27882930184926      3.98293816112041     -2.27213417876080
  H           0.70538701940588     -0.94269753211207      5.00137657978811
  N          -0.54867329032726      3.48717942558567     -1.78388717856337
  C          -0.84437650540422      2.15891422684051     -1.29209404987517
  C          -2.28399043813109      2.01358035636744     -1.89079964157744
  C           0.21247303472803      1.16907067569429     -1.85228283958285
  O          -2.48894939614319      1.47749082879936     -2.96634764213340
  C          -0.16062793716695     -0.25851431212613     -1.58620386994688
  C           0.59262792872160     -0.87621499338598     -0.58165446184120
  C           0.05924302158008     -1.88142552273016      0.19307637611347
  C          -1.26484689327416     -2.24589092848557     -0.02344385885398
  C          -1.88630773464318     -1.87601749247356     -1.21101774820268
  C          -1.31920115350124     -0.89817896139160     -2.00974275994612
  O          -1.98897521148089     -2.78488074633977      1.03292207144256
  C          -2.52824011927321     -1.69798381412138      1.81147468454353
  C          -1.44893921149733     -0.79208787850363      2.37505747511640
  C          -0.81712486292755     -1.23442331236369      3.52788718783177
  C           0.24608207064934     -0.55853307170149      4.10537681587894
  C           0.71963993322074      0.60490701213744      3.51391082699536
  C           0.12196832274284      1.08430317655930      2.37249567110972
  C          -0.96938444178288      0.41302582276951      1.78701843701448
  N          -1.52159706656759      0.96410316265850      0.66737839412496
  O          -0.88961788827515      2.11864569698522      0.14015948139320
  O          -2.57560795591864      0.58559607753823      0.09729945465281
  C          -4.56973522193971      2.82698852979990     -1.65782716674515
  N          -3.17670654735793      2.79847845183462     -1.26980812224623
  H          -2.96363926012132      3.12036223472658     -0.33592676024558
  H          -5.15902886224294      2.15885534546511     -1.02822735495724
  H          -4.94324908121222      3.84434007345159     -1.56985302688007
  H          -4.63600203257341      2.49021178536303     -2.69016922140858
  C           0.57991342014375      4.17726996216095     -1.44540149824292
  O           1.45509498434181      3.70065685275536     -0.74574713544383
  C           0.63169182959093      5.56282473281790     -2.02760162651757
  H          -0.14587392402419      6.17721700107843     -1.58160611455348
  H           1.60093746570712      6.00245152633233     -1.81395057722490
  H           0.47504422575190      5.52203803300535     -3.10140129272432
