47
Coordinates from ORCA-job /home/esp/scriptDevelopment/drFrankenstein/11_PCY_CHARMM/04_torsion_scanning/torsion_NH1-CT1-CG321-CG2R61/scans_PCY_conformer_30/PCY_conformer_30_forwards/orca_scan E -79.912879110610
  H          -3.10850309270542     -1.40538398477695      1.11080717364757
  H          -1.21550169715435     -1.95826531016658      4.12288463846150
  H           0.85616769684758     -1.90854306241673      1.01524418932480
  H           0.97172075227462      1.43986207098492     -2.24559943062708
  H          -2.87564829570376     -2.38574151225642      2.58856265053147
  H           1.55307233089157     -0.11669985417366     -0.54507584660166
  H          -2.65780730715626     -2.55632011562846     -1.31178382384485
  H          -0.40631239884312      1.15174227330981     -3.35552788427949
  H           1.26136136927083      1.51184550216588      3.94998544227285
  H          -1.93714656232691     -0.80775373382972     -2.89988232447752
  H           0.30725398312457      2.07000481771913      1.76485472152076
  H          -1.16411778527800      4.10746466887148     -2.05262813756255
  H           0.46355345111308     -0.50085418663672      5.16555673925217
  N          -0.49390900518727      3.43565779660153     -1.70844963395862
  C          -0.95006109348159      2.07904587662886     -1.51215925168424
  C          -2.42813160920011      2.05094873441992     -1.99774230665364
  C          -0.05856979896029      1.09729763690101     -2.32362904962351
  O          -2.76089327663127      1.47202349213030     -3.01813986241210
  C          -0.20564198375269     -0.27738540303108     -1.75480974427385
  C           0.64534363845861     -0.67237876785022     -0.72776162608575
  C           0.25857018168751     -1.66669593595481      0.14991709606404
  C          -0.99752132561913     -2.24282466091856      0.00016808451502
  C          -1.72305380166721     -2.03694130727138     -1.16835938709709
  C          -1.31771501731510     -1.05748424353449     -2.05268555637177
  O          -1.60649385994099     -2.84278291546673      1.09557401792708
  C          -2.36977354930295     -1.83836333214581      1.79244906566809
  C          -1.46641658964557     -0.77732157009155      2.38096561786816
  C          -0.90291845095377     -1.05767631947457      3.61715569184438
  C           0.05484417988958     -0.24545501153400      4.20168181292099
  C           0.49845295589605      0.88132801152599      3.52299809197318
  C          -0.03782700921659      1.20009855910725      2.29778009995293
  C          -1.03951760352433      0.40085826861740      1.71151788851774
  N          -1.55990746564016      0.81814069003341      0.51525206839424
  O          -0.87684233180514      1.88992956963976     -0.08607379610052
  O          -2.62107482185305      0.42239175348009     -0.02976860074798
  C          -4.64451789514699      2.95813405681463     -1.53099426215286
  N          -3.22179602061216      2.86019668656008     -1.28936019206179
  H          -2.88891793579713      3.20578169136873     -0.39990776052598
  H          -5.19861833478161      2.35871982348804     -0.80783076861168
  H          -4.94970883017868      3.99955695481414     -1.46011146650650
  H          -4.84054576882056      2.57697217483566     -2.53082606770473
  C           0.72478740075267      3.89902151945030     -1.31015783822434
  O           1.57155510398458      3.18827387112295     -0.80004468911591
  C           0.91241107652509      5.36877043801071     -1.57201318647341
  H           0.22797694802320      5.94304102422395     -0.95348942647295
  H           1.93301195067439      5.64518801187181     -1.32611468166521
  H           0.71435749878822      5.59054525246071     -2.61644848873934
