47
Coordinates from ORCA-job /home/esp/scriptDevelopment/drFrankenstein/11_PCY_CHARMM/04_torsion_scanning/torsion_NH1-CT1-CG321-CG2R61/scans_PCY_conformer_46/PCY_conformer_46_opt/orca_opt E -79.895747300880
  H      -2.036490     -0.659290      4.508360
  H      -0.675150     -2.614760      3.886470
  H      -1.157540      2.648760      2.564520
  H       1.576800      2.567970     -1.828010
  H      -2.588350      0.449990      3.219660
  H      -0.636850      3.437240      0.291160
  H       0.948890     -0.977910      1.794030
  H       0.647540      1.143360     -2.303640
  H      -1.410620     -4.494060      0.121260
  H       1.437510     -0.210180     -0.495220
  H      -2.733420     -2.516160     -0.572790
  H      -2.377010      3.124400     -2.734670
  H      -0.402730     -4.542330      2.383470
  N      -1.751160      2.393880     -2.380290
  C      -0.499430      2.908150     -2.207000
  C      -0.455270      4.319640     -2.528980
  C       0.615540      2.061360     -1.709570
  O      -1.454930      4.875550     -3.000270
  C       0.411350      1.653460     -0.265330
  C      -0.282820      2.469450      0.617230
  C      -0.575250      2.034810      1.895410
  C      -0.160100      0.777030      2.306250
  C       0.606610     -0.010770      1.457530
  C       0.883710      0.426830      0.178140
  O      -0.546840      0.275840      3.542450
  C      -1.844710     -0.305850      3.491530
  C      -1.844720     -1.471020      2.527370
  C      -1.129500     -2.603770      2.906820
  C      -0.972860     -3.684580      2.059710
  C      -1.539970     -3.661350      0.794680
  C      -2.277720     -2.564160      0.403750
  C      -2.429580     -1.473970      1.257600
  N      -3.263170     -0.409910      0.758450
  O      -3.061360      0.731080      1.116710
  O      -4.161340     -0.735410      0.009520
  C       0.821200      6.407370     -2.552370
  N       0.708890      4.992900     -2.309600
  H       1.454930      4.546320     -1.804200
  H       1.674270      6.616290     -3.200870
  H      -0.096600      6.724760     -3.045010
  H       0.938550      6.962180     -1.618020
  C      -2.272350      1.152120     -2.122410
  O      -1.625380      0.223640     -1.676940
  C      -3.738020      1.080820     -2.468700
  H      -4.284560      1.847110     -1.923140
  H      -3.878070      1.244170     -3.535620
  H      -4.132910      0.107030     -2.193420
47
Coordinates from ORCA-job /home/esp/scriptDevelopment/drFrankenstein/11_PCY_CHARMM/04_torsion_scanning/torsion_NH1-CT1-CG321-CG2R61/scans_PCY_conformer_46/PCY_conformer_46_opt/orca_opt E -79.889977923540
  H      -2.250321     -0.638067      4.378982
  H      -0.822104     -2.579860      4.110607
  H      -1.261219      2.681954      2.528461
  H       1.482221      2.525362     -1.887486
  H      -2.712867      0.334472      2.953965
  H      -0.717942      3.483223      0.265921
  H       0.770211     -0.980220      1.726084
  H       0.435995      1.185855     -2.356076
  H      -1.020332     -4.825780      0.482223
  H       1.262415     -0.207333     -0.560687
  H      -2.262194     -2.959464     -0.570499
  H      -2.444247      3.398436     -2.663845
  H      -0.320438     -4.630628      2.850187
  N      -1.867985      2.625704     -2.313737
  C      -0.570241      3.032381     -2.199236
  C      -0.417316      4.433276     -2.535688
  C       0.489664      2.094066     -1.749621
  O      -1.394940      5.079158     -2.957189
  C       0.280229      1.677283     -0.310942
  C      -0.386960      2.504166      0.581436
  C      -0.692687      2.061957      1.852727
  C      -0.303643      0.792125      2.251040
  C       0.448734     -0.003953      1.397682
  C       0.725908      0.435723      0.119435
  O      -0.707298      0.291666      3.482393
  C      -1.970569     -0.359810      3.360327
  C      -1.817469     -1.601815      2.507965
  C      -1.139359     -2.672981      3.083243
  C      -0.854854     -3.824666      2.372874
  C      -1.250530     -3.938326      1.048595
  C      -1.944417     -2.903536      0.458663
  C      -2.224507     -1.739666      1.174053
  N      -2.976991     -0.747876      0.456394
  O      -2.801046      0.434376      0.690651
  O      -3.710616     -1.149999     -0.431235
  C       1.046174      6.391395     -2.649869
  N       0.809951      4.993830     -2.390078
  H       1.539626      4.477576     -1.927640
  H       1.876733      6.511067     -3.345550
  H       0.139458      6.801866     -3.091937
  H       1.271742      6.929994     -1.727850
  C      -2.481784      1.442250     -1.996934
  O      -1.896106      0.477757     -1.529183
  C      -3.959976      1.475952     -2.281730
  H      -4.418598      2.307235     -1.751700
  H      -4.132436      1.602443     -3.347612
  H      -4.418058      0.549462     -1.941575
47
Coordinates from ORCA-job /home/esp/scriptDevelopment/drFrankenstein/11_PCY_CHARMM/04_torsion_scanning/torsion_NH1-CT1-CG321-CG2R61/scans_PCY_conformer_46/PCY_conformer_46_opt/orca_opt E -79.896551803350
  H      -2.070656     -0.646660      4.476520
  H      -0.678373     -2.600364      4.009514
  H      -1.211147      2.654495      2.518755
  H       1.558640      2.627280     -1.862699
  H      -2.645534      0.365936      3.123538
  H      -0.678428      3.479954      0.262244
  H       0.899406     -0.958766      1.701740
  H       0.600860      1.234561     -2.367648
  H      -1.328341     -4.759085      0.379888
  H       1.399863     -0.154265     -0.572134
  H      -2.672634     -2.861461     -0.473013
  H      -2.392266      3.283405     -2.739918
  H      -0.352255     -4.625942      2.652934
  N      -1.775627      2.538176     -2.399646
  C      -0.508709      3.019097     -2.236375
  C      -0.424722      4.432713     -2.547036
  C       0.589039      2.140596     -1.755899
  O      -1.424792      5.032915     -2.993026
  C       0.371086      1.705165     -0.320943
  C      -0.328665      2.505648      0.571752
  C      -0.629411      2.049232      1.840719
  C      -0.218132      0.783983      2.233767
  C       0.555127      0.010724      1.377094
  C       0.839897      0.470061      0.106082
  O      -0.597425      0.275686      3.473733
  C      -1.882161     -0.350927      3.442395
  C      -1.842893     -1.577207      2.556327
  C      -1.116235     -2.667760      3.025670
  C      -0.930180     -3.804932      2.260534
  C      -1.479967     -3.883760      0.989266
  C      -2.230106     -2.830975      0.510080
  C      -2.412039     -1.683231      1.281802
  N      -3.244552     -0.672980      0.697345
  O      -3.067669      0.500313      0.980707
  O      -4.084838     -1.043554     -0.107746
  C       0.932394      6.469119     -2.581986
  N       0.762025      5.056189     -2.352056
  H       1.503698      4.571438     -1.874347
  H       1.778048      6.642742     -3.246395
  H       0.021259      6.841416     -3.048132
  H       1.098924      7.001087     -1.644404
  C      -2.317820      1.310225     -2.135942
  O      -1.672471      0.365081     -1.703998
  C      -3.794033      1.263256     -2.424583
  H      -4.302509      2.048026     -1.870109
  H      -3.972739      1.410972     -3.486190
  H      -4.193925      0.300407     -2.112172
47
Coordinates from ORCA-job /home/esp/scriptDevelopment/drFrankenstein/11_PCY_CHARMM/04_torsion_scanning/torsion_NH1-CT1-CG321-CG2R61/scans_PCY_conformer_46/PCY_conformer_46_opt/orca_opt E -79.896360562480
  H      -2.029959     -0.649328      4.511165
  H      -0.708328     -2.632068      4.000803
  H      -1.171609      2.653451      2.554428
  H       1.535251      2.589262     -1.854036
  H      -2.596309      0.401466      3.181030
  H      -0.671697      3.457531      0.282286
  H       0.912435     -0.974448      1.735374
  H       0.582916      1.187595     -2.346245
  H      -1.360837     -4.656521      0.293904
  H       1.386353     -0.189001     -0.550381
  H      -2.623719     -2.688740     -0.524381
  H      -2.413475      3.222649     -2.751131
  H      -0.419816     -4.624086      2.586185
  N      -1.796743      2.478182     -2.410679
  C      -0.535236      2.966854     -2.225511
  C      -0.457241      4.383330     -2.526640
  C       0.568503      2.098082     -1.740839
  O      -1.458664      4.977941     -2.978605
  C       0.366330      1.675237     -0.300297
  C      -0.318571      2.485446      0.595422
  C      -0.598896      2.042552      1.873778
  C      -0.182634      0.780892      2.271486
  C       0.571572     -0.003909      1.409193
  C       0.839426      0.443724      0.131007
  O      -0.553882      0.277779      3.513965
  C      -1.843334     -0.332966      3.482621
  C      -1.819209     -1.531245      2.562482
  C      -1.130264     -2.655490      3.007951
  C      -0.965469     -3.773517      2.210230
  C      -1.495987     -3.796067      0.928221
  C      -2.201418     -2.704492      0.468047
  C      -2.359694     -1.574695      1.271885
  N      -3.126060     -0.510211      0.700880
  O      -2.968011      0.634594      1.096031
  O      -4.005312     -0.819454     -0.089715
  C       0.883335      6.431871     -2.537048
  N       0.719854      5.016449     -2.316737
  H       1.462216      4.534775     -1.837043
  H       1.735028      6.613352     -3.192067
  H      -0.024891      6.801923     -3.010025
  H       1.037071      6.958139     -1.593819
  C      -2.339048      1.242573     -2.182649
  O      -1.696933      0.283535     -1.775086
  C      -3.804609      1.194102     -2.519040
  H      -4.336467      1.957999     -1.957127
  H      -3.950695      1.372996     -3.580968
  H      -4.206265      0.219990     -2.252296
47
Coordinates from ORCA-job /home/esp/scriptDevelopment/drFrankenstein/11_PCY_CHARMM/04_torsion_scanning/torsion_NH1-CT1-CG321-CG2R61/scans_PCY_conformer_46/PCY_conformer_46_opt/orca_opt E -79.896981579530
  H      -1.997800     -0.648771      4.520862
  H      -0.679081     -2.622261      3.988570
  H      -1.136260      2.663181      2.562085
  H       1.544769      2.606526     -1.854385
  H      -2.583638      0.406456      3.203161
  H      -0.639238      3.472746      0.291186
  H       0.902134     -0.983968      1.714627
  H       0.599203      1.201066     -2.349842
  H      -1.419527     -4.670069      0.311241
  H       1.376716     -0.191186     -0.568520
  H      -2.701190     -2.707414     -0.489127
  H      -2.406699      3.212949     -2.761812
  H      -0.422151     -4.622158      2.579519
  N      -1.784333      2.474312     -2.418764
  C      -0.528277      2.972654     -2.227465
  C      -0.459424      4.391106     -2.522798
  C       0.580314      2.110615     -1.743108
  O      -1.466222      4.979602     -2.973799
  C       0.379055      1.683129     -0.304229
  C      -0.294711      2.495558      0.597950
  C      -0.573686      2.049609      1.875506
  C      -0.169464      0.781402      2.264722
  C       0.571429     -0.007727      1.394995
  C       0.839862      0.444109      0.118479
  O      -0.535404      0.278102      3.508512
  C      -1.827376     -0.330109      3.490403
  C      -1.819181     -1.527816      2.568955
  C      -1.122868     -2.651035      3.005507
  C      -0.976367     -3.773912      2.211025
  C      -1.537581     -3.804847      0.942433
  C      -2.252694     -2.715795      0.491864
  C      -2.391023     -1.579258      1.290617
  N      -3.178113     -0.526370      0.730513
  O      -2.988918      0.632555      1.070382
  O      -4.024030     -0.838860     -0.095951
  C       0.865969      6.450206     -2.523672
  N       0.710672      5.032823     -2.308764
  H       1.457512      4.554171     -1.832755
  H       1.717935      6.638151     -3.176357
  H      -0.043184      6.817589     -2.996740
  H       1.015066      6.972702     -1.577722
  C      -2.316442      1.233861     -2.195743
  O      -1.666748      0.280473     -1.784341
  C      -3.778414      1.169438     -2.542375
  H      -4.322383      1.929111     -1.986337
  H      -3.918239      1.343816     -3.605896
  H      -4.170962      0.191569     -2.276600
47
Coordinates from ORCA-job /home/esp/scriptDevelopment/drFrankenstein/11_PCY_CHARMM/04_torsion_scanning/torsion_NH1-CT1-CG321-CG2R61/scans_PCY_conformer_46/PCY_conformer_46_opt/orca_opt E -79.896801628860
  H      -2.048706     -0.644833      4.474025
  H      -0.658104     -2.587526      3.999981
  H      -1.154629      2.678837      2.538331
  H       1.565495      2.641802     -1.858447
  H      -2.634111      0.370288      3.125786
  H      -0.624853      3.507244      0.281790
  H       0.850794     -0.982239      1.672261
  H       0.610209      1.246851     -2.366793
  H      -1.376364     -4.784322      0.405513
  H       1.355718     -0.171282     -0.598364
  H      -2.715638     -2.885918     -0.451499
  H      -2.388631      3.271363     -2.752204
  H      -0.360048     -4.628839      2.660726
  N      -1.767101      2.534690     -2.402374
  C      -0.505811      3.023362     -2.234112
  C      -0.426867      4.439340     -2.539441
  C       0.596845      2.152555     -1.754226
  O      -1.435136      5.032610     -2.983215
  C       0.380892      1.713356     -0.321682
  C      -0.293189      2.523620      0.581909
  C      -0.592889      2.066136      1.850442
  C      -0.208693      0.788454      2.229162
  C       0.533756      0.000576      1.359390
  C       0.820214      0.463054      0.090511
  O      -0.585507      0.280782      3.468033
  C      -1.869803     -0.347653      3.438895
  C      -1.832207     -1.571059      2.550996
  C      -1.107699     -2.662055      3.022011
  C      -0.938426     -3.808655      2.266919
  C      -1.509352     -3.899574      1.005758
  C      -2.256542     -2.846470      0.523681
  C      -2.417060     -1.684148      1.281024
  N      -3.244658     -0.680977      0.692955
  O      -3.111115      0.493950      1.007137
  O      -4.101212     -1.052009     -0.098964
  C       0.917425      6.486779     -2.571011
  N       0.749832      5.072582     -2.343704
  H       1.500144      4.589521     -1.877209
  H       1.763680      6.659991     -3.234790
  H       0.006971      6.861179     -3.035937
  H       1.083272      7.013351     -1.630321
  C      -2.305061      1.304927     -2.140936
  O      -1.658965      0.366344     -1.690269
  C      -3.774367      1.241501     -2.452468
  H      -4.298700      2.030744     -1.919322
  H      -3.935331      1.369899     -3.519629
  H      -4.169463      0.279904     -2.134309
47
Coordinates from ORCA-job /home/esp/scriptDevelopment/drFrankenstein/11_PCY_CHARMM/04_torsion_scanning/torsion_NH1-CT1-CG321-CG2R61/scans_PCY_conformer_46/PCY_conformer_46_opt/orca_opt E -79.897104043660
  H      -2.001604     -0.640397      4.507101
  H      -0.672339     -2.611922      4.005945
  H      -1.127456      2.672684      2.551273
  H       1.552280      2.627248     -1.861846
  H      -2.592516      0.393740      3.174657
  H      -0.623367      3.490640      0.284642
  H       0.876273     -0.988666      1.682220
  H       0.605137      1.225415     -2.367238
  H      -1.429875     -4.735813      0.375423
  H       1.357083     -0.187679     -0.597018
  H      -2.716244     -2.790727     -0.458367
  H      -2.400562      3.238198     -2.766253
  H      -0.417914     -4.639318      2.636266
  N      -1.776835      2.500567     -2.422697
  C      -0.520890      2.996753     -2.235734
  C      -0.450425      4.416523     -2.526000
  C       0.586865      2.131825     -1.755667
  O      -1.458782      5.005654     -2.973788
  C       0.379957      1.695831     -0.320313
  C      -0.286990      2.508970      0.586114
  C      -0.571277      2.057914      1.860678
  C      -0.178977      0.783630      2.242390
  C       0.554138     -0.007907      1.367919
  C       0.826498      0.448739      0.093846
  O      -0.543279      0.280558      3.486660
  C      -1.832809     -0.335455      3.472315
  C      -1.820067     -1.547688      2.570036
  C      -1.120649     -2.661238      3.025713
  C      -0.975833     -3.799809      2.253526
  C      -1.544442     -3.857684      0.989222
  C      -2.262846     -2.778902      0.520234
  C      -2.398955     -1.625271      1.295610
  N      -3.187177     -0.586156      0.718019
  O      -3.014272      0.578469      1.050793
  O      -4.035765     -0.912768     -0.101428
  C       0.877403      6.475270     -2.525135
  N       0.718902      5.057804     -2.312659
  H       1.469567      4.576194     -1.845270
  H       1.728532      6.661286     -3.179370
  H      -0.031653      6.846685     -2.995068
  H       1.030169      6.994123     -1.577819
  C      -2.309570      1.262004     -2.192278
  O      -1.661439      0.315133     -1.763345
  C      -3.773085      1.195057     -2.530164
  H      -4.312891      1.966266     -1.986174
  H      -3.917177      1.349551     -3.596400
  H      -4.165831      0.222700     -2.244557
47
Coordinates from ORCA-job /home/esp/scriptDevelopment/drFrankenstein/11_PCY_CHARMM/04_torsion_scanning/torsion_NH1-CT1-CG321-CG2R61/scans_PCY_conformer_46/PCY_conformer_46_opt/orca_opt E -79.897121710790
  H      -1.988157     -0.636656      4.511169
  H      -0.674146     -2.613768      4.008114
  H      -1.109053      2.677186      2.553792
  H       1.552823      2.630287     -1.864902
  H      -2.582642      0.399120      3.181180
  H      -0.609314      3.494066      0.285518
  H       0.869325     -0.995198      1.673476
  H       0.608496      1.226679     -2.371729
  H      -1.454773     -4.737719      0.382508
  H       1.346529     -0.194907     -0.606771
  H      -2.726651     -2.783770     -0.452338
  H      -2.402050      3.231679     -2.767653
  H      -0.435923     -4.644610      2.640715
  N      -1.775646      2.495598     -2.425350
  C      -0.521835      2.995106     -2.236825
  C      -0.455719      4.416407     -2.521738
  C       0.588617      2.132336     -1.759138
  O      -1.466292      5.003112     -2.967357
  C       0.382976      1.694705     -0.324036
  C      -0.276674      2.510584      0.585243
  C      -0.558766      2.060183      1.860513
  C      -0.171829      0.783557      2.239739
  C       0.552452     -0.011948      1.361478
  C       0.822889      0.444276      0.086862
  O      -0.532890      0.282293      3.485394
  C      -1.823373     -0.331746      3.475684
  C      -1.817158     -1.543511      2.573046
  C      -1.124536     -2.661253      3.028725
  C      -0.988937     -3.801858      2.257925
  C      -1.560968     -3.857631      0.995056
  C      -2.271634     -2.774111      0.525570
  C      -2.397977     -1.617679      1.298907
  N      -3.176852     -0.573339      0.719933
  O      -2.997572      0.590274      1.054102
  O      -4.025657     -0.892900     -0.102379
  C       0.864770      6.480355     -2.511900
  N       0.710339      5.061715     -2.304351
  H       1.464257      4.580463     -1.841763
  H       1.715947      6.670892     -3.164787
  H      -0.045012      6.850711     -2.981230
  H       1.015171      6.995969     -1.562420
  C      -2.304487      1.254378     -2.198888
  O      -1.653128      0.308736     -1.772564
  C      -3.765351      1.180534     -2.546452
  H      -4.312733      1.949009     -2.006279
  H      -3.902868      1.334372     -3.613760
  H      -4.154974      0.206049     -2.264030
47
Coordinates from ORCA-job /home/esp/scriptDevelopment/drFrankenstein/11_PCY_CHARMM/04_torsion_scanning/torsion_NH1-CT1-CG321-CG2R61/scans_PCY_conformer_46/PCY_conformer_46_opt/orca_opt E -79.897137467270
  H      -1.974943     -0.628440      4.513091
  H      -0.675196     -2.611578      4.017759
  H      -1.081509      2.688255      2.554245
  H       1.552952      2.635868     -1.871944
  H      -2.574956      0.402591      3.181241
  H      -0.585375      3.503189      0.283935
  H       0.848957     -1.005194      1.656235
  H       0.611579      1.231048     -2.382404
  H      -1.477822     -4.752982      0.407205
  H       1.322729     -0.206718     -0.625289
  H      -2.733843     -2.793907     -0.438779
  H      -2.404265      3.231231     -2.769594
  H      -0.452048     -4.652251      2.662581
  N      -1.774814      2.495166     -2.432574
  C      -0.523218      2.996883     -2.240632
  C      -0.461037      4.420923     -2.514952
  C       0.590115      2.135033     -1.767557
  O      -1.473668      5.006732     -2.956805
  C       0.385017      1.694459     -0.333053
  C      -0.261077      2.516069      0.580797
  C      -0.541671      2.066808      1.856777
  C      -0.166740      0.785394      2.231830
  C       0.542599     -0.017421      1.347934
  C       0.811432      0.437782      0.072607
  O      -0.524483      0.287762      3.479597
  C      -1.814720     -0.327345      3.475746
  C      -1.813317     -1.542575      2.578159
  C      -1.127493     -2.662121      3.039379
  C      -1.000395     -3.808382      2.275574
  C      -1.575443     -3.868045      1.014197
  C      -2.277854     -2.782043      0.538710
  C      -2.395529     -1.619024      1.304305
  N      -3.163824     -0.572393      0.718545
  O      -2.983028      0.591193      1.054387
  O      -4.007203     -0.887050     -0.111962
  C       0.854175      6.488893     -2.491622
  N       0.701868      5.068879     -2.291857
  H       1.460913      4.585325     -1.840027
  H       1.705031      6.683997     -3.143525
  H      -0.056260      6.860681     -2.958523
  H       1.003956      6.998612     -1.538888
  C      -2.300473      1.250551     -2.214457
  O      -1.647298      0.305650     -1.789934
  C      -3.759963      1.173093     -2.566238
  H      -4.311207      1.942198     -2.031052
  H      -3.893654      1.322870     -3.634704
  H      -4.147988      0.198365     -2.282456
47
Coordinates from ORCA-job /home/esp/scriptDevelopment/drFrankenstein/11_PCY_CHARMM/04_torsion_scanning/torsion_NH1-CT1-CG321-CG2R61/scans_PCY_conformer_46/PCY_conformer_46_opt/orca_opt E -79.897143453510
  H      -1.970050     -0.623522      4.511676
  H      -0.677931     -2.610352      4.025789
  H      -1.065272      2.694989      2.553695
  H       1.554510      2.643751     -1.876047
  H      -2.573024      0.402106      3.176929
  H      -0.568912      3.511130      0.283478
  H       0.835961     -1.010385      1.642841
  H       0.616210      1.237877     -2.389774
  H      -1.490820     -4.769720      0.428263
  H       1.309497     -0.210895     -0.638183
  H      -2.738653     -2.810352     -0.428639
  H      -2.404803      3.234623     -2.768091
  H      -0.462500     -4.659584      2.682409
  N      -1.773261      2.498550     -2.435055
  C      -0.522511      3.001510     -2.242971
  C      -0.463068      4.427050     -2.511916
  C       0.592908      2.140391     -1.773047
  O      -1.477686      5.012897     -2.948832
  C       0.387622      1.696983     -0.339258
  C      -0.250623      2.521311      0.577735
  C      -0.531685      2.071368      1.853377
  C      -0.165268      0.786416      2.224864
  C       0.535846     -0.019799      1.337435
  C       0.805113      0.436104      0.062401
  O      -0.522164      0.290301      3.473459
  C      -1.811876     -0.326291      3.472884
  C      -1.812756     -1.545497      2.580679
  C      -1.130800     -2.664866      3.047873
  C      -1.008097     -3.816078      2.290810
  C      -1.584254     -3.880855      1.030147
  C      -2.282449     -2.794891      0.548755
  C      -2.395842     -1.626566      1.307244
  N      -3.159629     -0.580637      0.715100
  O      -2.977553      0.584023      1.047570
  O      -4.001262     -0.895991     -0.117237
  C       0.849455      6.496847     -2.483671
  N       0.698682      5.076169     -2.287354
  H       1.461909      4.591017     -1.844397
  H       1.698648      6.694490     -3.136938
  H      -0.062404      6.869221     -2.947329
  H       1.001051      7.003768     -1.529747
  C      -2.296712      1.252105     -2.220042
  O      -1.641051      0.307290     -1.799739
  C      -3.755795      1.172523     -2.572584
  H      -4.308375      1.943525     -2.041650
  H      -3.888273      1.317368     -3.641932
  H      -4.143042      0.198610     -2.284968
47
Coordinates from ORCA-job /home/esp/scriptDevelopment/drFrankenstein/11_PCY_CHARMM/04_torsion_scanning/torsion_NH1-CT1-CG321-CG2R61/scans_PCY_conformer_46/PCY_conformer_46_opt/orca_opt E -79.897147147350
  H      -1.969545     -0.622797      4.511553
  H      -0.679853     -2.610968      4.030145
  H      -1.058241      2.698692      2.554270
  H       1.555128      2.648008     -1.875859
  H      -2.574947      0.399605      3.175426
  H      -0.560365      3.515563      0.284354
  H       0.825984     -1.013704      1.636870
  H       0.619394      1.241437     -2.392436
  H      -1.491321     -4.776103      0.435758
  H       1.300462     -0.213752     -0.643515
  H      -2.736903     -2.817243     -0.425563
  H      -2.404587      3.237122     -2.766841
  H      -0.464872     -4.662846      2.690772
  N      -1.772303      2.500590     -2.436402
  C      -0.521811      3.003907     -2.243638
  C      -0.463579      4.430139     -2.510393
  C       0.594248      2.143014     -1.774569
  O      -1.478854      5.016315     -2.944854
  C       0.387639      1.697958     -0.341408
  C      -0.246376      2.523958      0.577115
  C      -0.528326      2.073651      1.852429
  C      -0.167107      0.786668      2.222178
  C       0.529408     -0.021556      1.333009
  C       0.799553      0.434666      0.058243
  O      -0.523954      0.291767      3.471245
  C      -1.812418     -0.327082      3.472152
  C      -1.812887     -1.547974      2.582268
  C      -1.132008     -2.666915      3.051977
  C      -1.009513     -3.819666      2.297183
  C      -1.584630     -3.886176      1.036087
  C      -2.281647     -2.800554      0.552300
  C      -2.395089     -1.630810      1.308586
  N      -3.158072     -0.585384      0.714056
  O      -2.975706      0.579618      1.045219
  O      -3.998802     -0.901797     -0.118778
  C       0.848537      6.500036     -2.482948
  N       0.698156      5.079416     -2.285998
  H       1.464108      4.593297     -1.848979
  H       1.696163      6.697922     -3.138193
  H      -0.064480      6.872289     -2.944429
  H       1.002421      7.007093     -1.529452
  C      -2.294863      1.253177     -2.223574
  O      -1.638227      0.308165     -1.805722
  C      -3.754602      1.174328     -2.573495
  H      -4.305631      1.948790     -2.046037
  H      -3.887933      1.313834     -3.643442
  H      -4.142741      0.202331     -2.280660
47
Coordinates from ORCA-job /home/esp/scriptDevelopment/drFrankenstein/11_PCY_CHARMM/04_torsion_scanning/torsion_NH1-CT1-CG321-CG2R61/scans_PCY_conformer_46/PCY_conformer_46_opt/orca_opt E -79.897149992680
  H      -1.972009     -0.624538      4.511811
  H      -0.682409     -2.613182      4.032683
  H      -1.055835      2.700801      2.555924
  H       1.555475      2.650914     -1.872926
  H      -2.579426      0.395757      3.175124
  H      -0.555486      3.518576      0.286641
  H       0.817883     -1.015970      1.634725
  H       0.622053      1.243802     -2.392162
  H      -1.484675     -4.777305      0.435639
  H       1.294093     -0.215437     -0.644668
  H      -2.731396     -2.819574     -0.426844
  H      -2.404057      3.239648     -2.764372
  H      -0.463494     -4.664406      2.693027
  N      -1.771764      2.502512     -2.435491
  C      -0.520935      3.005591     -2.242900
  C      -0.463101      4.431894     -2.509927
  C       0.595050      2.144732     -1.773512
  O      -1.478855      5.018579     -2.942237
  C       0.386786      1.698614     -0.340961
  C      -0.244792      2.525660      0.578403
  C      -0.528009      2.074915      1.853255
  C      -0.170589      0.786487      2.221945
  C       0.523526     -0.022807      1.331972
  C       0.794915      0.433786      0.057571
  O      -0.528349      0.292421      3.471089
  C      -1.815248     -0.329154      3.472264
  C      -1.813881     -1.550642      2.583134
  C      -1.132835     -2.669115      3.053725
  C      -1.008005     -3.821502      2.298708
  C      -1.580401     -3.887895      1.036334
  C      -2.277935     -2.802852      0.551876
  C      -2.394101     -1.633906      1.308737
  N      -3.158660     -0.589159      0.713988
  O      -2.976919      0.575906      1.044722
  O      -3.999307     -0.907209     -0.118145
  C       0.849720      6.501010     -2.487684
  N       0.699235      5.080925     -2.287296
  H       1.467582      4.594165     -1.855395
  H       1.695173      6.697629     -3.146146
  H      -0.064729      6.872747     -2.946742
  H       1.007190      7.010029     -1.535807
  C      -2.294149      1.254760     -2.223641
  O      -1.636596      0.308787     -1.809690
  C      -3.754718      1.177384     -2.570575
  H      -4.303384      1.956538     -2.047680
  H      -3.888926      1.310032     -3.641284
  H      -4.144697      0.208080     -2.271201
47
Coordinates from ORCA-job /home/esp/scriptDevelopment/drFrankenstein/11_PCY_CHARMM/04_torsion_scanning/torsion_NH1-CT1-CG321-CG2R61/scans_PCY_conformer_46/PCY_conformer_46_opt/orca_opt E -79.897151327970
  H      -1.971882     -0.626429      4.513014
  H      -0.685370     -2.616633      4.034565
  H      -1.056097      2.700189      2.557153
  H       1.555787      2.653340     -1.869966
  H      -2.580918      0.393338      3.176827
  H      -0.554976      3.519266      0.288396
  H       0.815802     -1.016965      1.633565
  H       0.624155      1.245922     -2.391647
  H      -1.483338     -4.777636      0.434721
  H       1.292484     -0.215229     -0.645001
  H      -2.728985     -2.819147     -0.427832
  H      -2.403437      3.240796     -2.763656
  H      -0.465878     -4.666960      2.693732
  N      -1.771082      2.503558     -2.435129
  C      -0.520230      3.006911     -2.242441
  C      -0.462927      4.433080     -2.510101
  C       0.595602      2.146336     -1.772291
  O      -1.479140      5.019472     -2.941790
  C       0.386123      1.699111     -0.340334
  C      -0.245175      2.525881      0.579509
  C      -0.528716      2.074444      1.854019
  C      -0.172070      0.785566      2.222045
  C       0.521599     -0.023524      1.331577
  C       0.793368      0.433779      0.057480
  O      -0.529644      0.291652      3.471305
  C      -1.815896     -0.331000      3.473370
  C      -1.814449     -1.552462      2.584208
  C      -1.134537     -2.671572      3.054980
  C      -1.009338     -3.823458      2.299241
  C      -1.579905     -3.888708      1.035990
  C      -2.276692     -2.803160      0.551421
  C      -2.393277     -1.634978      1.309209
  N      -3.157404     -0.589520      0.714665
  O      -2.973871      0.575387      1.044510
  O      -3.999080     -0.907322     -0.116422
  C       0.849447      6.502315     -2.491596
  N       0.699352      5.082614     -2.288501
  H       1.469114      4.595970     -1.859071
  H       1.693341      6.698069     -3.152347
  H      -0.066073      6.873364     -2.949058
  H       1.009265      7.012893     -1.540941
  C      -2.292835      1.255449     -2.224312
  O      -1.634410      0.309071     -1.812590
  C      -3.753941      1.178215     -2.569137
  H      -4.301299      1.960773     -2.050057
  H      -3.888722      1.305175     -3.640483
  H      -4.144839      0.210796     -2.264792
47
Coordinates from ORCA-job /home/esp/scriptDevelopment/drFrankenstein/11_PCY_CHARMM/04_torsion_scanning/torsion_NH1-CT1-CG321-CG2R61/scans_PCY_conformer_46/PCY_conformer_46_opt/orca_opt E -79.897152487480
  H      -1.973713     -0.629115      4.513917
  H      -0.686666     -2.619132      4.034926
  H      -1.058093      2.699729      2.558970
  H       1.555624      2.653756     -1.866148
  H      -2.583996      0.390538      3.178294
  H      -0.556000      3.519408      0.290550
  H       0.812695     -1.017866      1.634532
  H       0.624424      1.246682     -2.389721
  H      -1.476773     -4.775441      0.430583
  H       1.290243     -0.215511     -0.643351
  H      -2.724570     -2.817579     -0.430588
  H      -2.403032      3.242529     -2.761959
  H      -0.463284     -4.667079      2.691239
  N      -1.771227      2.504939     -2.433081
  C      -0.519899      3.007707     -2.241114
  C      -0.461991      4.433414     -2.510455
  C       0.595204      2.146839     -1.769949
  O      -1.478442      5.019791     -2.941895
  C       0.384604      1.699129     -0.338415
  C      -0.246672      2.525823      0.581522
  C      -0.530662      2.074083      1.855786
  C      -0.174571      0.784959      2.223584
  C       0.518982     -0.024113      1.333063
  C       0.791217      0.433528      0.059175
  O      -0.532573      0.291082      3.472671
  C      -1.818026     -0.333058      3.474417
  C      -1.814932     -1.553912      2.584538
  C      -1.134528     -2.673006      3.054696
  C      -1.007070     -3.823533      2.297256
  C      -1.575602     -3.887575      1.033062
  C      -2.273328     -2.802252      0.549128
  C      -2.392207     -1.635646      1.308823
  N      -3.157806     -0.590439      0.715594
  O      -2.975746      0.574262      1.046557
  O      -3.999254     -0.908605     -0.115574
  C       0.851437      6.501978     -2.497275
  N       0.700588      5.082917     -2.290614
  H       1.471373      4.596134     -1.863206
  H       1.693419      6.695619     -3.161131
  H      -0.065151      6.873004     -2.952584
  H       1.014866      7.014349     -1.548198
  C      -2.293306      1.257022     -2.222897
  O      -1.634650      0.309584     -1.813722
  C      -3.754720      1.180313     -2.566634
  H      -4.300717      1.967298     -2.052979
  H      -3.889140      1.300059     -3.638913
  H      -4.147321      0.215415     -2.256468
47
Coordinates from ORCA-job /home/esp/scriptDevelopment/drFrankenstein/11_PCY_CHARMM/04_torsion_scanning/torsion_NH1-CT1-CG321-CG2R61/scans_PCY_conformer_46/PCY_conformer_46_opt/orca_opt E -79.897153454500
  H      -1.973238     -0.631200      4.514840
  H      -0.687888     -2.621742      4.035424
  H      -1.060193      2.698178      2.560126
  H       1.555757      2.655313     -1.863196
  H      -2.584597      0.388712      3.179969
  H      -0.558125      3.519025      0.292049
  H       0.813003     -1.018007      1.634518
  H       0.625163      1.248477     -2.388699
  H      -1.476469     -4.775733      0.429416
  H       1.290608     -0.214384     -0.642771
  H      -2.723980     -2.817408     -0.431270
  H      -2.402605      3.243797     -2.761178
  H      -0.464296     -4.668789      2.690519
  N      -1.771020      2.506256     -2.431596
  C      -0.519600      3.009039     -2.240251
  C      -0.461566      4.434371     -2.510947
  C       0.595229      2.148277     -1.768373
  O      -1.478454      5.020246     -2.942403
  C       0.383892      1.699665     -0.337275
  C      -0.248212      2.525549      0.582806
  C      -0.532179      2.073148      1.856833
  C      -0.175338      0.784115      2.224246
  C       0.518812     -0.024256      1.333535
  C       0.791069      0.434114      0.059900
  O      -0.532938      0.289737      3.473214
  C      -1.818271     -0.334819      3.475321
  C      -1.815145     -1.555294      2.585041
  C      -1.135275     -2.674838      3.054942
  C      -1.007719     -3.824875      2.296776
  C      -1.575610     -3.888171      1.032301
  C      -2.273055     -2.802524      0.548567
  C      -2.391911     -1.636410      1.308995
  N      -3.157138     -0.590765      0.716287
  O      -2.974910      0.573792      1.047566
  O      -3.998779     -0.908330     -0.115000
  C       0.852051      6.503009     -2.501213
  N       0.700855      5.084343     -2.292281
  H       1.472395      4.597653     -1.866087
  H       1.692147      6.695220     -3.167901
  H      -0.065636      6.874143     -2.954197
  H       1.018756      7.016264     -1.553202
  C      -2.292848      1.258279     -2.222224
  O      -1.633957      0.310516     -1.813907
  C      -3.754256      1.180926     -2.565871
  H      -4.299887      1.971899     -2.058109
  H      -3.887739      1.293254     -3.639136
  H      -4.147894      0.218262     -2.250092
