47
Coordinates from ORCA-job /home/esp/scriptDevelopment/drFrankenstein/11_PCY_CHARMM/04_torsion_scanning/torsion_NH1-CT1-CG321-CG2R61/scans_PCY_conformer_46/PCY_conformer_46_opt/orca_opt E -79.897153454500
  H          -1.97323758824514     -0.63119998488842      4.51484048528073
  H          -0.68788806059444     -2.62174246867377      4.03542423313620
  H          -1.06019280841305      2.69817768983682      2.56012597111191
  H           1.55575683438017      2.65531328989424     -1.86319584160594
  H          -2.58459684989562      0.38871157085590      3.17996868145651
  H          -0.55812475348815      3.51902481997496      0.29204870902101
  H           0.81300269450861     -1.01800670001955      1.63451752813144
  H           0.62516346452948      1.24847689358200     -2.38869939833739
  H          -1.47646897448061     -4.77573326086260      0.42941570199017
  H           1.29060791723237     -0.21438440138860     -0.64277129357831
  H          -2.72397962799446     -2.81740788784400     -0.43127011886061
  H          -2.40260501428500      3.24379657549118     -2.76117833207576
  H          -0.46429611441123     -4.66878860548428      2.69051937581127
  N          -1.77101954932460      2.50625597584302     -2.43159636953256
  C          -0.51960008954819      3.00903864660687     -2.24025142068928
  C          -0.46156579766327      4.43437091446926     -2.51094697773273
  C           0.59522925016919      2.14827663729354     -1.76837348142911
  O          -1.47845427448211      5.02024587367356     -2.94240285106912
  C           0.38389156696261      1.69966534549091     -0.33727534143272
  C          -0.24821244113306      2.52554931175990      0.58280575870661
  C          -0.53217899921219      2.07314764231306      1.85683341512355
  C          -0.17533783977649      0.78411517758968      2.22424630383142
  C           0.51881216683590     -0.02425586643217      1.33353542358488
  C           0.79106902179102      0.43411409388983      0.05990030287133
  O          -0.53293803467333      0.28973651020201      3.47321376387480
  C          -1.81827112623410     -0.33481885168063      3.47532101527947
  C          -1.81514539953747     -1.55529430007925      2.58504128559594
  C          -1.13527483279823     -2.67483829069316      3.05494219697010
  C          -1.00771931954939     -3.82487521456058      2.29677593708585
  C          -1.57561001650718     -3.88817128403557      1.03230128263016
  C          -2.27305480414875     -2.80252361431326      0.54856702210339
  C          -2.39191067358279     -1.63641008866348      1.30899486251082
  N          -3.15713756974676     -0.59076517689697      0.71628672233213
  O          -2.97491045705955      0.57379187764994      1.04756550475835
  O          -3.99877907181751     -0.90833032642385     -0.11500003270423
  C           0.85205074998796      6.50300859520955     -2.50121280193281
  N           0.70085534110375      5.08434280297472     -2.29228061942885
  H           1.47239455301251      4.59765279111248     -1.86608711457509
  H           1.69214671189167      6.69522015436811     -3.16790120274908
  H          -0.06563611534403      6.87414327189906     -2.95419674073557
  H           1.01875561143235      7.01626413909874     -1.55320210093989
  C          -2.29284824051200      1.25827909031779     -2.22222363237213
  O          -1.63395653306971      0.31051551456398     -1.81390716679406
  C          -3.75425566245730      1.18092645228401     -2.56587113745898
  H          -4.29988690385854      1.97189857175863     -2.05810948854033
  H          -3.88773856140009      1.29325427717953     -3.63913566190533
  H          -4.14789377859320      0.21826181575685     -2.25009235671820
