47
Coordinates from ORCA-job /home/esp/scriptDevelopment/drFrankenstein/11_PCY_CHARMM/04_torsion_scanning/torsion_NH1-CT1-CG321-CG2R61/scans_PCY_conformer_26/PCY_conformer_26_forwards/orca_scan E -79.901185013850
  H           0.77447097626548     -2.22899593215693      3.39986467749283
  H           1.83008153920453     -0.44819163273525      0.94651314106167
  H          -1.61052419696517     -0.55674363382725      1.19112178247826
  H          -3.08312519480946      4.19536878693609      0.80478733949958
  H          -0.86482559946451     -1.85168609347367      2.88022271805667
  H          -2.71110083582111      1.32673200383436      0.11965805448916
  H           1.03090873822135      2.13005237516820      3.20595693023008
  H          -1.51338385116184      4.86577546304957      0.40470896822387
  H           1.49526040674852     -3.12378292744038     -2.36666777807916
  H          -0.06725028760358      4.03732658516492      2.09053275524515
  H          -0.01382600379272     -4.55911418203138     -1.02203822483723
  H          -3.55588963189975      3.85698164272660     -2.72496096585038
  H           2.43848337588870     -1.07210121411038     -1.34577377553121
  N          -3.56861284847600      4.11619665332906     -1.73140947465156
  C          -2.41631222330563      3.72162123812663     -1.13077472906638
  C          -1.50858806480736      3.08018840061692     -2.07577924710296
  C          -2.13544432362249      3.96859889142322      0.30794472847647
  O          -1.89256046866395      2.87493982247578     -3.24606588561388
  C          -1.45709509203449      2.81697898659585      1.00458924618055
  C          -1.88415717029082      1.51271561079661      0.78889874360261
  C          -1.25936048761881      0.44086223496636      1.40060648444206
  C          -0.19567102536572      0.66355152490495      2.26805564051694
  C           0.21548443272213      1.97260809907694      2.51883735030751
  C          -0.40540684295635      3.03210653163048      1.89089340677698
  O           0.51625349674175     -0.31126283635661      2.91042681256875
  C           0.19381636500123     -1.66191287892118      2.66485014281918
  C           0.55834933954821     -2.12190116204301      1.27561249789780
  C           1.41867213493005     -1.34408759381466      0.50895621494266
  C           1.76042915466555     -1.69531139377981     -0.78476413113199
  C           1.23838363118318     -2.84721683292990     -1.35756876407869
  C           0.39587657836378     -3.64652089800828     -0.61789934234390
  C           0.05894339298216     -3.30091798916341      0.69543597400044
  N          -0.78864825336258     -4.19324202144163      1.39317058617351
  O          -1.37773351920427     -5.06665512087830      0.75397045402151
  O          -0.91467756811086     -4.08297899648503      2.61417368916150
  C           0.66700145500229      2.02483638408965     -2.46014257345991
  N          -0.26771667527263      2.77075542932250     -1.65490520367360
  H          -0.03226480625015      2.91182241665544     -0.68408033057414
  H           1.62963120797843      2.53300385641095     -2.47961911702783
  H           0.79424663813813      1.01807439775899     -2.05654785548476
  H           0.26596538899994      1.95983299084570     -3.46991874593417
  C          -4.70194404804822      4.70758595778925     -1.23586510916246
  O          -4.83242320529426      5.03683365334251     -0.06344277280658
  C          -5.75575941841909      4.91324358588306     -2.28519197192284
  H          -5.37275430095764      5.55570245149437     -3.07423939363581
  H          -6.03918198618438      3.95961720965906     -2.72366044019551
  H          -6.62701032282136      5.37671015552308     -1.83247250650088
