47
Coordinates from ORCA-job /home/esp/scriptDevelopment/drFrankenstein/11_PCY_CHARMM/04_torsion_scanning/torsion_NH1-CT1-CG321-CG2R61/scans_PCY_conformer_26/PCY_conformer_26_forwards/orca_scan E -79.892828054590
  H          -0.91760074416235     -2.14986782418986      4.17795832500636
  H           0.60863433670312     -2.98921500935408      2.30161694513160
  H          -2.18964466454087      0.89340225857473      2.52764714888547
  H          -0.32107963620289      4.55010571000476      0.01506717739431
  H          -2.06579941023375     -0.89031704905437      3.69957729548623
  H          -2.09703334534960      2.68056390660895      0.88800287116311
  H           2.03261273685382      0.35161941435235      2.19133852384098
  H           1.08754623816029      3.80505429064931     -0.75322001245133
  H          -1.32228032185050     -3.88340370634429     -1.40438226310648
  H           2.12637656742136      2.16370704937685      0.52291054295083
  H          -3.26086252343507     -2.51793601323250     -0.68871528031623
  H          -2.21064753002155      2.59663663462733     -2.71922314702576
  H           0.62098311488014     -4.11671755105469      0.11509851670000
  N          -1.54413251104615      2.33300668154983     -1.98026416402782
  C          -0.77551455400009      3.41673253760013     -1.68912715725468
  C          -1.05849553007283      4.51532268710491     -2.61146708138343
  C           0.04545931864673      3.63327185362345     -0.46161317756168
  O          -1.90426980347970      4.35434195031440     -3.51618667842615
  C           0.01612115993392      2.53141256723477      0.56020073897058
  C          -1.18304805255449      2.17176681242237      1.16012717110841
  C          -1.23874369396858      1.14764820679629      2.08486822442135
  C          -0.07755566274794      0.47143232752121      2.43988651614704
  C           1.13654416923871      0.86896314325802      1.88857191195025
  C           1.17921567970792      1.88816605961811      0.96039751295758
  O          -0.03308752382738     -0.56906094327304      3.33663865082691
  C          -1.16571352721201     -1.42855385175185      3.39538507461952
  C          -1.32636397044674     -2.14656844418656      2.07604950944981
  C          -0.24375574407373     -2.90652530391831      1.64528563902562
  C          -0.23306451787001     -3.52942153483212      0.41134379753703
  C          -1.31938418380297     -3.39750196961857     -0.44247352207010
  C          -2.39786492704884     -2.63658055559032     -0.05216716523461
  C          -2.41019303048097     -2.01055441840747      1.19811448676826
  N          -3.55301409968056     -1.22882188812538      1.49460233665918
  O          -4.17120220473982     -0.73096124600903      0.55309295483736
  O          -3.89636068686759     -1.05641619369415      2.66516892538744
  C          -0.56600391433358      6.80667351458815     -3.32323303345110
  N          -0.38207594592031      5.66920019148940     -2.45480065704726
  H           0.32253252387640      5.74584065595348     -1.73991596818316
  H          -0.87248395481041      7.67716688153507     -2.74353068661827
  H           0.35799821575554      7.03447957302769     -3.85495871963320
  H          -1.34395875824761      6.55782697386333     -4.04266899462880
  C          -1.41273841893403      0.98519856899050     -1.73554923434863
  O          -0.45399873361643      0.49348978135401     -1.16219047381625
  C          -2.57296628939807      0.18376350580265     -2.25077982169547
  H          -2.23113695867152     -0.81706946721664     -2.49740456526207
  H          -3.31481475268363      0.10017056388168     -1.45473689488512
  H          -3.03812393484540      0.64652866812956     -3.11434209879765
