47
Coordinates from ORCA-job /home/esp/scriptDevelopment/drFrankenstein/11_PCY_CHARMM/04_torsion_scanning/torsion_NH1-CT1-CG321-CG2R61/scans_PCY_conformer_26/PCY_conformer_26_forwards/orca_scan E -79.899344884860
  H           1.56410877007650     -1.68432782724729      3.40900410735243
  H           1.63284452384808     -0.35037819820241      0.44550894164701
  H          -1.47894529346204     -1.06339046440272      1.47743772097567
  H          -4.06749773014941      2.34987901892498     -0.30813975440939
  H          -0.18180564573732     -1.75966592710333      3.19787058151309
  H          -3.16873034733085      0.27419384396644      0.35684922180997
  H           0.72935229156541      2.47804372400230      2.39105674191093
  H          -3.63567097514557      3.72181208859779      0.67788813971659
  H           1.46104326516737     -3.79104775499471     -2.07844815716166
  H          -0.98550896723390      3.83553690649858      1.23716128822615
  H           0.69526123028760     -5.13988375930031     -0.14541059147490
  H          -2.99654673001336      5.15531355282942     -2.54268125035853
  H           1.94978516574268     -1.38205705940685     -1.75361039098645
  N          -3.44604644120292      4.78801149671027     -1.69520785023007
  C          -2.75175616995111      3.71852414507452     -1.22303934575531
  C          -1.63742528709576      3.38803161137548     -2.10751090194070
  C          -3.22074391211989      2.98355940778969     -0.01596346000036
  O          -1.36563177921302      4.16441598570088     -3.04782040356800
  C          -2.18919432110652      2.14948934484160      0.69068696733181
  C          -2.31394948365305      0.77036223429662      0.79137371675089
  C          -1.35168871042451      0.00608590871386      1.43255405894050
  C          -0.24375174198032      0.62366038515995      1.99934017132863
  C          -0.12737595695413      2.01385235124271      1.93005292748635
  C          -1.08793719128850      2.76260397428077      1.28731720432559
  O           0.78392235973218     -0.02097912849597      2.62855482198909
  C           0.74987578717996     -1.42767709441074      2.72330665917345
  C           0.96533343405003     -2.12846615875794      1.40546726407273
  C           1.41556864676774     -1.39824808822175      0.31166685816511
  C           1.59611805447716     -1.98111679189246     -0.92995978964658
  C           1.32665852136424     -3.33045473453941     -1.11380010546806
  C           0.89659811246579     -4.08471741948298     -0.04522485693619
  C           0.72015141343222     -3.49999784084998      1.21391439332614
  N           0.29949041572871     -4.35302605618517      2.26051651591431
  O          -0.08624573465238     -5.48919426180080      1.97599800396408
  O           0.33132694891514     -3.95054992515585      3.42584068130456
  C           0.16956578412052      1.84339492994781     -2.69910827316921
  N          -0.96943111905738      2.23806409994995     -1.90868331495426
  H          -1.22492099503925      1.64983452299207     -1.12950823115302
  H           1.06549087172655      1.81122260656185     -2.07776970992797
  H          -0.00263914005093      0.86065597405439     -3.13678868907186
  H           0.30373212866926      2.57800726600812     -3.49098058068972
  C          -4.53797337649243      5.45304612050547     -1.20098305564524
  O          -5.12644751495758      5.11504033225716     -0.18200946685139
  C          -4.93478365707566      6.62734396062196     -2.04838020849508
  H          -4.11531676523164      7.33907791783575     -2.10921915780904
  H          -5.17716871463190      6.29370220568850     -3.05428326391153
  H          -5.80208402406565      7.11041257402176     -1.60883617761065
