47
Coordinates from ORCA-job /home/esp/scriptDevelopment/drFrankenstein/11_PCY_CHARMM/04_torsion_scanning/torsion_NH1-CT1-CG321-CG2R61/scans_PCY_conformer_26/PCY_conformer_26_forwards/orca_scan E -79.893959724760
  H          -1.00411303309957     -2.07724448383343      4.20915093733737
  H           0.52828132878557     -3.01525247202069      2.39053187763074
  H          -2.18162136825845      0.94716701304361      2.45669697111725
  H          -0.07044148991839      4.53029623243599     -0.06305174353671
  H          -2.11594729409146     -0.80749248839551      3.67505639500442
  H          -2.02207411478765      2.69572215106950      0.78270056187587
  H           2.03373668481333      0.31066670827403      2.21022801807768
  H           1.20000008818363      3.63679259523882     -0.90882025631039
  H          -1.35345140842460     -3.96156304137403     -1.32795038498984
  H           2.19483768211095      2.08149214406509      0.50368581294457
  H          -3.26563420684821     -2.52145120068680     -0.69214519892668
  H          -2.23199581180040      2.58186058650842     -2.67443043860396
  H           0.55163601483437     -4.20557173059264      0.23752915993422
  N          -1.49840548214124      2.31963432874248     -2.00323378032834
  C          -0.75507173058280      3.41933315384117     -1.70901109100710
  C          -1.13602049332886      4.55033929064853     -2.55190373967162
  C           0.16691296752628      3.57695802746300     -0.54769603425368
  O          -2.05426503877594      4.41264493036470     -3.38676358596661
  C           0.09283005090078      2.49452206539942      0.49418070669825
  C          -1.12403147413896      2.17276325654106      1.07970302159620
  C          -1.21776148216585      1.17033067852072      2.02543785703295
  C          -0.07785982969305      0.47855435935814      2.41741970394229
  C           1.15405454532100      0.83884426702482      1.87950539943436
  C           1.23462338121641      1.83564069375798      0.92995452980991
  O          -0.07047778589844     -0.54130769609046      3.33838900461682
  C          -1.22299740743643     -1.37365891400232      3.40216882672812
  C          -1.37724197472629     -2.12583910233677      2.10125273643554
  C          -0.30811287539332     -2.92756334249577      1.71458546727281
  C          -0.29079447903548     -3.58601162845291      0.49922201514258
  C          -1.35564780817994     -3.44820295380312     -0.38042156468532
  C          -2.41956223872703     -2.64623136560474     -0.03436544974420
  C          -2.43905381731908     -1.98499395903341      1.19759003063237
  N          -3.56574444493084     -1.16475736961600      1.44922508555249
  O          -4.14744936837733     -0.67231058705186      0.48169172057994
  O          -3.93067512049969     -0.95535302197004      2.60726272319252
  C          -0.73291598167297      6.87594158324305     -3.20776751869259
  N          -0.46471072466774      5.70876307953341     -2.40311073162723
  H           0.30996145715044      5.76082798948508     -1.76220218577890
  H          -0.97977142158249      7.72379274449130     -2.56922297216278
  H           0.13383729758014      7.12571989798115     -3.82015229492331
  H          -1.57839294952844      6.65065345966903     -3.85519935464351
  C          -1.29176256782009      0.97367394711941     -1.80872447673494
  O          -0.28032113330577      0.51671406514004     -1.30085450906666
  C          -2.43798115722520      0.13327066982056     -2.29063142610810
  H          -2.08322892174076     -0.87501333242686     -2.48166908005599
  H          -3.19263846560203      0.08771693083223     -1.50373287254163
  H          -2.89352659669810      0.54718184017464     -3.18410787222921
