47
Coordinates from ORCA-job /home/esp/scriptDevelopment/drFrankenstein/11_PCY_CHARMM/04_torsion_scanning/torsion_NH1-CT1-CG321-CG2R61/scans_PCY_conformer_26/PCY_conformer_26_forwards/orca_scan E -79.895008436130
  H          -1.08885602381628     -1.97733234293419      4.24652473853916
  H           0.41386794627676     -3.07528320654678      2.52166576967348
  H          -2.15970781155403      1.03215477701548      2.40232333477292
  H           0.17877763650052      4.49386950670161     -0.17092843650383
  H          -2.15781689365456     -0.70116101690724      3.64403350007643
  H          -1.93736108273431      2.73452524483224      0.69071510814284
  H           2.03342759967456      0.25100060938059      2.18678158967944
  H           1.29367165567700      3.46316581818970     -1.07868256640376
  H          -1.40181536750886     -4.07449916565129     -1.21584167670284
  H           2.25794236738679      1.97648463457486      0.44179793301466
  H          -3.25456841337619     -2.51463212275629     -0.69883663604691
  H          -2.22979158881252      2.55367556004913     -2.65209155429337
  H           0.43864200148873     -4.35355293870419      0.41973091968123
  N          -1.43726860569578      2.30182135730953     -2.04919530707876
  C          -0.72547191655888      3.41805039697143     -1.74079935299185
  C          -1.20935968255598      4.57728032894017     -2.48478796802723
  C           0.28583303343807      3.51660680807904     -0.65114970835077
  O          -2.19085091770125      4.45241795648422     -3.24631177566878
  C           0.17113889752411      2.45899878071759      0.41500500350018
  C          -1.05759788512069      2.18889458347049      1.00133674015747
  C          -1.18737026768458      1.21178603572236      1.96975722437982
  C          -0.07252471872755      0.49188390616540      2.38226557979948
  C           1.17245904633572      0.79980289747477      1.84081811373423
  C           1.28909238226244      1.77209107725753      0.87002216709976
  O          -0.10046140641029     -0.50505334405122      3.32746185075892
  C          -1.27722284111661     -1.30198580669165      3.40849023604475
  C          -1.43319319534902     -2.10216520379529      2.13666616716087
  C          -0.39621745851560     -2.97258930844157      1.81649147001142
  C          -0.37722455236627     -3.68090107456650      0.62933593746768
  C          -1.40586766181591     -3.52403786958606     -0.28941255423320
  C          -2.43667520602533     -2.65552672144876     -0.00938949960833
  C          -2.45933594059461     -1.94545979258922      1.19505783597158
  N          -3.55233824823425     -1.06384508993282      1.38030489891141
  O          -4.07916705967259     -0.58092873999519      0.37720075089394
  O          -3.94326601672265     -0.79605242564696      2.51762013782426
  C          -0.93603176133995      6.94747351955030     -3.04098326182351
  N          -0.56100430731884      5.74856607940423     -2.33142081023047
  H           0.26962632602773      5.79151695206033     -1.76395651465213
  H          -1.15522344754018      7.74861127896030     -2.33537787822134
  H          -0.13409015709639      7.26383326675032     -3.70829011805783
  H          -1.82635213831579      6.72632818166659     -3.62683874574791
  C          -1.15392258331043      0.96402590353644     -1.90609934068457
  O          -0.09620393358743      0.55087963646521     -1.45861195620328
  C          -2.27601049600411      0.07961713326198     -2.36388737728936
  H          -1.90228853848613     -0.93165645301313     -2.49191871009084
  H          -3.05337139396594      0.07070136444399     -1.59862106740589
  H          -2.70963937330263      0.43859902782257     -3.29197419097921
