47
Coordinates from ORCA-job /home/esp/scriptDevelopment/drFrankenstein/11_PCY_CHARMM/04_torsion_scanning/torsion_NH1-CT1-CG321-CG2R61/scans_PCY_conformer_26/PCY_conformer_26_forwards/orca_scan E -79.899790693900
  H          -0.08255990605331     -2.48387975121332      3.22572287417812
  H           1.83297616415334     -2.41051385944907      1.76162739107171
  H          -2.46954882399505      0.47786056130235      2.98340937839130
  H          -2.36851654332019      4.42113563767519      0.33738539815043
  H          -1.61458632959272     -1.69841369295501      2.77480739203796
  H          -3.08231399804605      2.38737396604328      1.57056444102176
  H           1.65593258328727      1.20932184993357      2.18856901167815
  H          -0.69928769012485      4.55494445661167     -0.26224429588808
  H           1.40436047729950     -1.32905716836043     -2.35078580916690
  H           1.05173556478688      3.15682049320596      0.81627394413822
  H          -0.93801555865475     -0.66576154373597     -1.90936247757227
  H          -3.23320951233329      2.10374240738530     -2.29483407394314
  H           2.78036812693296     -2.24073506747599     -0.50089403550045
  N          -3.19655455183430      2.77102162494718     -1.51572402154415
  C          -1.90834056205013      3.05887000905559     -1.21474965656092
  C          -0.98295928408375      2.38283963913150     -2.11879411034275
  C          -1.50622545549450      3.86247421761774     -0.02318923019277
  O          -1.42802315042242      1.62896221115859     -3.00671999601052
  C          -1.06707434709156      2.85391618231639      1.01828317966758
  C          -2.04185497220903      2.12568299088577      1.69160834732987
  C          -1.69950006508622      1.05247824144526      2.48924445724858
  C          -0.36449605545835      0.68174500230823      2.61105412328601
  C           0.62178508130632      1.47352922011199      2.03644102679295
  C           0.26897145718573      2.55468524273887      1.25084335911158
  O           0.01309484927795     -0.47857786482608      3.26359819871805
  C          -0.52814688844115     -1.66217998350576      2.66399825461301
  C          -0.09655619725912     -1.70738522711490      1.21667337728780
  C           1.22123059368703     -2.05645711685694      0.94676616073903
  C           1.75906936243142     -1.94425555011277     -0.32399511483457
  C           0.99141893441227     -1.43464834216448     -1.36104039324759
  C          -0.31601177627971     -1.06737926601788     -1.12303083739489
  C          -0.86935957717400     -1.21947996074518      0.15060604590023
  N          -2.23976174825410     -0.87292695451732      0.28103427871291
  O          -2.69449239360234     -0.00198308395530     -0.45911023897147
  O          -2.93994701333624     -1.46512740682324      1.10413111817075
  C           1.34708967825475      1.96956428721961     -2.75951345875956
  N           0.33241335749732      2.62340115229092     -1.97173714366334
  H           0.64208113653828      3.22889459125279     -1.23029382460028
  H           1.97662483531576      2.71165631418984     -3.24937146478869
  H           1.96309843970982      1.33078643946514     -2.12537365793913
  H           0.84776079369832      1.36358454783732     -3.51282533160448
  C          -4.37967129528457      3.08452657095358     -0.90064336279461
  O          -4.46424085793911      3.83726626629436      0.06194694789570
  C          -5.55573570409778      2.40463589935490     -1.53850007339961
  H          -5.60969178173740      2.65350768870352     -2.59486442221299
  H          -5.43515347825319      1.32727968116760     -1.44099651138061
  H          -6.46916591826563      2.71425444722561     -1.03999516382803
