47
Coordinates from ORCA-job /home/esp/scriptDevelopment/drFrankenstein/11_PCY_CHARMM/04_torsion_scanning/torsion_NH1-CT1-CG321-CG2R61/scans_PCY_conformer_26/PCY_conformer_26_forwards/orca_scan E -79.898713694690
  H           1.21258485968935     -2.06859780589509      3.39729155746922
  H           1.81701600066203     -0.35724434748344      0.73286966511046
  H          -1.51312306579904     -0.79895296318374      1.31803231049205
  H          -3.71113315181244      3.40074961920189      0.62749337268150
  H          -0.49732702548775     -1.89243024301293      3.01759577029772
  H          -2.92427925740608      0.89254263580221      0.28604788180643
  H           0.95263710361754      2.26979051388977      2.97830233368111
  H          -2.43663972168995      4.57769697847020      0.74176471603408
  H           1.50404310303431     -3.30691241274226     -2.34039880715272
  H          -0.46798667159439      3.98355448971752      1.91011224343348
  H           0.31135829034173     -4.79427450648133     -0.75632952675729
  H          -3.39394837895113      4.38526627267977     -2.81223707507278
  H           2.28109974009443     -1.08589518098935     -1.56115751132383
  N          -3.55053963429129      4.42904195791712     -1.79816584448457
  C          -2.63022535238449      3.66939708735270     -1.14500991739401
  C          -1.68417919069926      3.07695158461100     -2.08659304077727
  C          -2.66892275321685      3.58303423535719      0.34147850476487
  O          -1.90696715612374      3.19277270298160     -3.31082104575002
  C          -1.78626173702258      2.55924174596673      0.99704363281311
  C          -2.07020292360134      1.20372292089351      0.86807912669496
  C          -1.26789022157381      0.24174694721895      1.45535946953494
  C          -0.16567495298143      0.62826166175345      2.21092006380774
  C           0.10567568365487      1.98693097894767      2.37469419748753
  C          -0.69509914817734      2.93736833760615      1.77539834275444
  O           0.71065510500686     -0.22446066460789      2.82080380760426
  C           0.51157486251751     -1.61445165130621      2.68922713028259
  C           0.79504349123297     -2.13458003383917      1.30229094197708
  C           1.47858255862121     -1.32616776495200      0.40143328283266
  C           1.73920112554666     -1.73676330477799     -0.89381887397378
  C           1.31028961883139     -2.98251205079041     -1.33140270627563
  C           0.64337218112117     -3.81204766448572     -0.45800469409513
  C           0.39040096812603     -3.40548989609636      0.85694148410643
  N          -0.27289693999026     -4.33143682736420      1.69483034714753
  O          -0.79585710340762     -5.32301884476736      1.18005791643117
  O          -0.31107595039464     -4.13417899424859      2.91207460672484
  C           0.35978166393404      1.78109929810638     -2.46166873604535
  N          -0.58547099286595      2.46322838848402     -1.61349163583669
  H          -0.45258304203385      2.39694743968663     -0.61561601664444
  H           1.36380566217995      2.16341898094487     -2.28296153749394
  H           0.33819493909771      0.70868676862919     -2.25986872708567
  H           0.07807715705282      1.96176753735551     -3.49736915873208
  C          -4.62618115198493      5.14188506298595     -1.33581527394992
  O          -4.91550752094956      5.22512003849137     -0.14961420357646
  C          -5.39556694425946      5.81148597819908     -2.43766203127918
  H          -4.74793977846771      6.49552736176177     -2.98021492530634
  H          -5.77284448726957      5.06761483824471     -3.13493437502291
  H          -6.22805985992597      6.36256279376707     -2.01098704194028
