47
Coordinates from ORCA-job /home/esp/scriptDevelopment/drFrankenstein/11_PCY_CHARMM/04_torsion_scanning/torsion_NH1-CT1-CG321-CG2R61/scans_PCY_conformer_26/PCY_conformer_26_forwards/orca_scan E -79.899378650080
  H          -0.43243681794622     -2.48392622020766      3.44801130334845
  H           1.42989649470192     -2.85176962368529      1.99675804447379
  H          -2.48767572810032      0.78115492158432      3.24965902189231
  H          -2.28673937716094      4.47467975856225      0.35722747132505
  H          -1.88218253454248     -1.59893511254506      2.90612356396754
  H          -3.00350893026732      2.72910763542062      1.84355798644787
  H           1.51519517360121      0.76938682396521      1.77853551292081
  H          -0.58249174381805      4.63603645360888     -0.12667064728226
  H           1.22308941910705     -1.93722703570399     -2.17271377030307
  H           1.00248232429823      2.71159274911441      0.35674921189169
  H          -1.00525668054469     -0.92429795346382     -1.81743819243683
  H          -2.91052554441987      1.99305483251431     -2.25940714804798
  H           2.41812286787475     -2.95201974483848     -0.25223217495376
  N          -2.94860970976270      2.64271113444156     -1.46715034294799
  C          -1.74401170146486      3.22685423211686     -1.26732462741867
  C          -0.77292647577629      2.81445616625380     -2.28029177029355
  C          -1.40788805416620      3.93925022267140     -0.00176830957114
  O          -1.10686363095884      1.98687340589512     -3.14959841385003
  C          -1.04706160706605      2.84190454661013      0.98010887721290
  C          -2.01217731841450      2.30271956872543      1.82173777995179
  C          -1.72398770485090      1.20950439032277      2.61718777012761
  C          -0.45707572447712      0.63971208569322      2.57765835649683
  C           0.52994647544413      1.20827012201942      1.78084454651973
  C           0.23234650242688      2.29812694965298      0.98758173155159
  O          -0.15010044975285     -0.50126911199435      3.30128457778249
  C          -0.79700570454698     -1.68088114436477      2.80696461262469
  C          -0.36442503471600     -1.89675539685660      1.37707180873112
  C           0.88724274880723     -2.45669871673843      1.15230212550095
  C           1.45081888322507     -2.49717884324154     -0.11177132208030
  C           0.78265988517939     -1.93330092774029     -1.18934474962858
  C          -0.45924711439037     -1.36712448396674     -0.99813969294672
  C          -1.04592472390159     -1.36379276088843      0.27051548296211
  N          -2.35291952640751     -0.82005734977141      0.35306233600236
  O          -2.68836481502967      0.02253478393555     -0.48057079731942
  O          -3.13099798674584     -1.21925174397162      1.22257388549782
  C           1.49255212155925      3.02701962283405     -3.18866794096662
  N           0.45723020733158      3.35991004082344     -2.24131583152666
  H           0.66205620303862      4.08024881561303     -1.56804438980108
  H           1.77864541271195      3.90619041167854     -3.76617058614063
  H           2.36670417613825      2.63689915702455     -2.66744590196477
  H           1.09963981804783      2.26642350922107     -3.86049676033395
  C          -4.15263299274936      2.78665760125445     -0.82749389240336
  O          -4.33469258400090      3.57052091233705      0.09463440378282
  C          -5.21486200682420      1.89171459788779     -1.39131673579342
  H          -5.35295457355562      2.08656001723977     -2.45132388434886
  H          -4.89575653727157      0.85866608925648     -1.26599768203030
  H          -6.14831537986343      2.05374461170002     -0.86145484662250
