47
Coordinates from ORCA-job /home/esp/scriptDevelopment/drFrankenstein/11_PCY_CHARMM/04_torsion_scanning/torsion_NH1-CT1-CG321-CG2R61/scans_PCY_conformer_26/PCY_conformer_26_forwards/orca_scan E -79.900314533910
  H           1.50992076546973     -1.55474129468594      3.47229560396354
  H           1.71853935857062     -0.50968540646394      0.40220943919960
  H          -1.41017398462229     -1.12060009430726      1.30452172845799
  H          -4.02805339347550      2.14097276462722     -0.69434533910264
  H          -0.22510389159781     -1.64766316558870      3.18501099748440
  H          -3.12947574863010      0.13287123354453      0.13365982741870
  H           0.64668314643573      2.51699462227589      2.19277656615312
  H          -3.87162502436916      3.42560112026428      0.48216525537190
  H           1.68519101651402     -4.18522984088173     -1.77486136437405
  H          -1.10161546275922      3.78939803579322      0.99396680691599
  H           0.81507004042622     -5.33996779376994      0.23796193151553
  H          -3.00717158691546      5.39415676323911     -2.37892944807526
  H           2.15353976772667     -1.75344440164380     -1.66621289213932
  N          -3.47593442774078      4.91223133110433     -1.60235822351941
  C          -2.81766148275731      3.76204761681263     -1.30090414118725
  C          -1.69718084179381      3.53926419336978     -2.20907471680493
  C          -3.30687671097715      2.83495219178906     -0.24557876648518
  O          -1.39102798228141      4.43402496375285     -3.02484492443992
  C          -2.23509951360758      2.05091018553520      0.46273176238178
  C          -2.30311532857160      0.66918224743586      0.57556560731526
  C          -1.32480203155021     -0.04747655897488      1.24658233483034
  C          -0.25486301809106      0.62139584118447      1.82736813138796
  C          -0.18513767126668      2.01274141555055      1.72818429657827
  C          -1.16361600028831      2.71392965063987      1.05953462043919
  O           0.77559257942502      0.02763970365136      2.50118896413965
  C           0.73048426515740     -1.36383254974551      2.72700398957250
  C           1.00687342165052     -2.18922461761717      1.49597427949287
  C           1.51183864873908     -1.56748076042874      0.36001844328571
  C           1.75788350044087     -2.26950188893284     -0.80641489886418
  C           1.49938252657579     -3.63213123172600     -0.86913329901395
  C           1.01220706075078     -4.27926537353190      0.24422934716105
  C           0.77040856348313     -3.57380093418715      1.42832436007029
  N           0.29205641097667     -4.32074384943718      2.53021852156584
  O          -0.08593811177529     -5.47795002889264      2.33744462946640
  O           0.26796511482543     -3.80718121634869      3.65056553582199
  C           0.08852475922080      2.05061114215387     -2.97794143879668
  N          -1.06282388066431      2.35372885594042     -2.16521349545020
  H          -1.33097910813953      1.67997359446705     -1.46330623888516
  H           0.97142794062473      1.92318573025951     -2.35015822283321
  H          -0.08521906997517      1.13823920465237     -3.54710476138263
  H           0.24762114390106      2.88255181472910     -3.66161469117247
  C          -4.54822332894426      5.53082878554252     -1.01379945225912
  O          -5.15879784038331      5.05983620465726     -0.06226800685853
  C          -4.89478801156484      6.83769673357030     -1.66661187979315
  H          -4.05237490779866      7.52204811001450     -1.60335593941091
  H          -5.13155964394994      6.67765829931956     -2.71550767037925
  H          -5.75296202642335      7.27324865128725     -1.16396316876255
