47
Coordinates from ORCA-job /home/esp/scriptDevelopment/drFrankenstein/11_PCY_CHARMM/04_torsion_scanning/torsion_NH1-CT1-CG321-CG2R61/scans_PCY_conformer_26/PCY_conformer_26_forwards/orca_scan E -79.899446013650
  H          -0.04309115623521     -2.48572036607492      3.27330299723020
  H           1.92226655204204     -2.64424936971614      1.96182970663070
  H          -2.45384913154593      0.42250830364046      3.07336411538215
  H          -2.49453981663847      4.34890190980910      0.40847185339954
  H          -1.52626426303465     -1.70744542446998      2.66384078626394
  H          -3.14622182355254      2.30114471825366      1.64745952927602
  H           1.63278808056250      1.23962715146753      2.17006026687752
  H          -0.85502165782522      4.47829339864938     -0.27454125319989
  H           1.92456845538781     -1.63577458619952     -2.18981201656788
  H           0.95093389452018      3.17548930271808      0.81224286373557
  H          -0.37055497339993     -0.72495042282675     -1.94053363770782
  H          -3.48213699503422      2.35061017443110     -2.40551731199931
  H           3.05681416780769     -2.61965834923193     -0.21733016231952
  N          -3.40732509861409      2.90007750955849     -1.54061176686784
  C          -2.10905943679254      3.01310123287701     -1.18246334876705
  C          -1.22790631723327      2.37972134542073     -2.16453858344674
  C          -1.65137483731721      3.78751342979525      0.00869278003739
  O          -1.72164174274352      1.82609472342656     -3.16444832017927
  C          -1.15490251034170      2.80496441085674      1.04744179360018
  C          -2.09757605890301      2.06668689994226      1.75458501081359
  C          -1.71134022352708      1.01418663255543      2.55850821774052
  C          -0.36573807604751      0.67191748430362      2.64423537184778
  C           0.58936847868398      1.48016832414385      2.04250921810626
  C           0.19267338880052      2.54929071632957      1.25889736952294
  O           0.04463125403728     -0.48070008907726      3.29263590950665
  C          -0.43369349801751     -1.67338615625322      2.65960261187861
  C           0.12560696225207     -1.75399542455244      1.25784714756706
  C           1.41650026112289     -2.24340924093676      1.09752209377900
  C           2.06074384301387     -2.21725038873342     -0.12776720936783
  C           1.42997721545913     -1.66432596858839     -1.23246189749775
  C           0.15496592413659     -1.15555420603908     -1.10144509381459
  C          -0.50432956720379     -1.20752952028965      0.12851105437106
  N          -1.83060163920812     -0.69870338513354      0.13675048992823
  O          -2.10406732481079      0.22180123663584     -0.63891830524980
  O          -2.67245397297389     -1.19768265757383      0.89002275802896
  C           1.07109272513668      1.85505431027586     -2.83339280967822
  N           0.09851402102284      2.47468030182343     -1.96757342006308
  H           0.43406129950230      2.84792264241429     -1.09480077540313
  H           1.77802065622781      2.60338012143197     -3.19044216830293
  H           1.61031631255900      1.07207989183062     -2.29888301572615
  H           0.54210554929994      1.42299280144382     -3.68068281861223
  C          -4.57088243717173      3.23877369675195     -0.89610340118927
  O          -4.60106583789044      3.81439051616921      0.18357772075541
  C          -5.79500059894486      2.83282513535822     -1.66323417058089
  H          -5.77001946589471      3.25769923922332     -2.66314245314271
  H          -5.82530661028762      1.74870780984141     -1.74838817463808
  H          -6.68097397038544      3.17773018431806     -1.13887955195740
