47
Coordinates from ORCA-job /home/esp/scriptDevelopment/drFrankenstein/11_PCY_CHARMM/04_torsion_scanning/torsion_NH1-CT1-CG321-CG2R61/scans_PCY_conformer_26/PCY_conformer_26_forwards/orca_scan E -79.897515047830
  H          -0.63917941656731     -2.29136623886913      3.87035031975713
  H           0.87789275952863     -3.54599391165025      2.62019491336497
  H          -1.99063662496406      1.24691918191369      3.71385110058133
  H          -2.22608169235649      4.47925570390601      0.39656153851713
  H          -1.94265346921399     -1.32947385651495      3.11744409328656
  H          -2.55421152835266      3.18796039040822      2.30703204513239
  H           1.18351638665191      0.22674454752315      1.05475753503767
  H          -0.51156613068187      4.70296483661757      0.00572102022466
  H           0.81049488515456     -3.61718168521740     -1.65066006332098
  H           0.60757774076598      2.15673114452415     -0.37146106431689
  H          -0.97485069488163     -1.89971912514437     -1.62611986278768
  H          -2.60203778031564      2.30497939534455     -2.60026694174713
  H           1.70953064990737     -4.46206455590240      0.49843717817875
  N          -2.65438866600603      2.66821233045005     -1.64345267920381
  C          -1.63369382452252      3.52605285461204     -1.39227885334053
  C          -0.80023902668779      3.73351540342413     -2.57149921759275
  C          -1.33564633710396      3.99245776921919     -0.01133416216097
  O          -1.11944660952686      3.19020048381179     -3.64868055574666
  C          -1.00851236428039      2.80904154425095      0.87545699323994
  C          -1.72885902996413      2.55022598731623      2.03307982226499
  C          -1.41912751592409      1.45953923011183      2.82327514681038
  C          -0.37163885645845      0.61943575552798      2.46688496621623
  C           0.36745962172521      0.88216187168381      1.31920619114503
  C           0.04444582762437      1.96927954917067      0.53031540372434
  O          -0.04741419426444     -0.47392871632826      3.25492399398667
  C          -0.88890754948773     -1.61474733214703      3.05241999780131
  C          -0.55010225382878     -2.24849399181138      1.72624229544345
  C           0.45815121094552     -3.20436205373216      1.68724281555186
  C           0.93641449833987     -3.71076076435503      0.49068699228933
  C           0.43388942538141     -3.24027336932817     -0.71402462470959
  C          -0.55842155323516     -2.28352275802996     -0.70761206399107
  C          -1.06366408910527     -1.79733870564239      0.50073505957258
  N          -2.12404263507539     -0.85704531739669      0.39959145531986
  O          -2.16881105795339     -0.14430118933765     -0.60312774814808
  O          -2.98309982183723     -0.80496045158933      1.27951400750092
  C           1.16262299329948      4.80255278018618     -3.57493711589119
  N           0.28900087242705      4.51962317291042     -2.46284353524452
  H           0.51631914722754      4.94750401698722     -1.58018401664065
  H           1.17203888745952      5.87170092079398     -3.78767212547009
  H           2.17661451802326      4.46985651775410     -3.35318947301558
  H           0.78526956103289      4.26442751200875     -4.44260495974333
  C          -3.77139454327448      2.36827055437116     -0.90398391783826
  O          -3.98883107610406      2.85007868870662      0.19688093839759
  C          -4.69768986187266      1.42398337275563     -1.61196229405608
  H          -5.01856472987187      1.84906673626754     -2.55927459613440
  H          -4.16761180261949      0.49386462659644     -1.80388220278164
  H          -5.56090424915668      1.22692714384252     -0.98375374946331
