47
Coordinates from ORCA-job /home/esp/scriptDevelopment/drFrankenstein/11_PCY_CHARMM/04_torsion_scanning/torsion_NH1-CT1-CG321-CG2R61/scans_PCY_conformer_26/PCY_conformer_26_forwards/orca_scan E -79.897671385100
  H          -1.31536772196409     -1.60689185403943      4.37841429700182
  H           0.13677796682767     -3.05446485168695      2.97662136186675
  H          -2.08102813536482      1.39658437038002      2.34181735122760
  H           0.88121703159034      4.16881412276173     -0.71134302832957
  H          -2.28653861492252     -0.36141737735915      3.57283315834772
  H          -1.71742016877669      2.86294158339985      0.44128804135848
  H           1.97258760448229      0.07258725753848      2.11183931985908
  H           1.35179776389127      2.74159461844165     -1.64430244241201
  H          -1.28706289731482     -4.19185598910087     -0.88862825293944
  H           2.33928753022793      1.55559960976719      0.17566609274690
  H          -2.99967516851620     -2.41043440752913     -0.75028027014804
  H          -2.22779177001392      2.47551967784518     -2.77453784382237
  H           0.27763634649185     -4.51852208718880      1.00513142404367
  N          -1.35278854348852      2.20256029020615     -2.31452482966131
  C          -0.66805927814378      3.30051010370003     -1.89941162477701
  C          -1.34135854854133      4.53230955164758     -2.29154842896897
  C           0.54666151486927      3.18887634577924     -1.05150189025996
  O          -2.41626175904835      4.46350295763277     -2.92445777374719
  C           0.33116546412302      2.29748437137947      0.15227945000751
  C          -0.89904310090395      2.24952877248965      0.79143990627821
  C          -1.11023552760483      1.40946596295944      1.86912256999947
  C          -0.07829960566765      0.60208361295888      2.33166175474227
  C           1.17381995507115      0.68711870076251      1.72903713829363
  C           1.37203839952319      1.52478554421626      0.65169143478479
  O          -0.20382964440645     -0.27612728223267      3.38353975105664
  C          -1.41986370154920     -1.01606826559404      3.46599599057847
  C          -1.52051291866905     -1.93168133619095      2.26853435670034
  C          -0.56033689109111     -2.93249370711772      2.16232373032362
  C          -0.47326709774825     -3.74622742572179      1.04754748750252
  C          -1.34776590766541     -3.56428506416850     -0.01485344696884
  C          -2.29943368804376     -2.57172919496936      0.05431162473790
  C          -2.39641733193202     -1.75808215267614      1.18745620791007
  N          -3.41011985105646     -0.76855263992682      1.16111746469885
  O          -3.76813335509211     -0.33783561153209      0.06440434423642
  O          -3.90728080663196     -0.36783529264998      2.21425858278248
  C          -1.36156506995085      6.98148691379710     -2.32158945934964
  N          -0.77529185401420      5.71174793650211     -1.96961357834269
  H           0.09801558128678      5.73354892195516     -1.46893441711608
  H          -1.59387585418411      7.55432066554131     -1.42347880991467
  H          -0.67679198536167      7.55348146874412     -2.94752074903001
  H          -2.27970073445777      6.78598830401374     -2.87272522559178
  C          -1.02426775990599      0.87031294610981     -2.27787225656438
  O           0.04918111974076      0.46142613242824     -1.86236409812458
  C          -2.12083579388279     -0.01281470560560     -2.79450207952554
  H          -1.73599287454759     -1.01805928969255     -2.93548070132337
  H          -2.92133566260253     -0.03836346909786     -2.05468108553148
  H          -2.52362665506078      0.36756126112275     -3.72818054863628
