47
Coordinates from ORCA-job /home/esp/scriptDevelopment/drFrankenstein/11_PCY_CHARMM/04_torsion_scanning/torsion_NH1-CT1-CG321-CG2R61/scans_PCY_conformer_26/PCY_conformer_26_forwards/orca_scan E -79.900117801550
  H          -0.21784950345133     -2.50217122447589      3.22146956457055
  H           1.69556112956885     -2.39535726843031      1.73413549784655
  H          -2.51650123339102      0.56960697226692      3.01086881966599
  H          -2.29122912531182      4.45762900063127      0.30125551229481
  H          -1.73950214427863     -1.67951755234460      2.80242500910338
  H          -3.06062255959367      2.50385161459200      1.60540753343149
  H           1.62262488160564      1.07893876587899      2.12006497967263
  H          -0.60168909436359      4.57642683458396     -0.24121541107409
  H           1.21998893980484     -1.23204368502976     -2.35127739671688
  H           1.08726420382182      3.02708009479875      0.72118584378379
  H          -1.12684637293060     -0.62808330735352     -1.88592219992250
  H          -3.06659399739910      1.94722872096736     -2.20713022172715
  H           2.62305920600657     -2.16886283234736     -0.53197134613933
  N          -3.06002179357658      2.65633636090749     -1.46562705478428
  C          -1.79765051528913      3.09003213277442     -1.23884378236947
  C          -0.84489398759348      2.45607008021805     -2.14713863059723
  C          -1.42371224204018      3.89276020298057     -0.03775582148281
  O          -1.25125773992882      1.62135602000432     -2.97920901846165
  C          -1.03649457843746      2.85992752393459      1.00112563491510
  C          -2.03304769004169      2.18780161772338      1.70024515115889
  C          -1.72892199076673      1.10181132231625      2.49719040688303
  C          -0.41187558175116      0.66813839072218      2.60143273508823
  C           0.60069830824784      1.39705558250230      1.98982400494422
  C           0.28667664718289      2.48310060678574      1.19628582795760
  O          -0.07779884084736     -0.49831433842456      3.26757953014909
  C          -0.65478258825230     -1.66775103578444      2.67187575674534
  C          -0.24704792242840     -1.70758376045818      1.21804332687561
  C           1.07218317649467     -2.03628750113598      0.93025400382601
  C           1.59872753726521     -1.89161264628990     -0.34190110799168
  C           0.81581872594308     -1.37125331000212     -1.36212394685720
  C          -0.49655825565645     -1.03468090955692     -1.10912836626289
  C          -1.03811282434305     -1.21620423106259      0.16640271165963
  N          -2.41105084735854     -0.89422705366164      0.31702219961988
  O          -2.89920580179445     -0.04781784711580     -0.43134971458702
  O          -3.08544086855914     -1.47988835143018      1.16665765259036
  C           1.48695782648302      2.19867583665383     -2.85078105878141
  N           0.44915730667591      2.81200552934411     -2.06019208856989
  H           0.72880944452406      3.50022870471349     -1.38135658133476
  H           2.05383966943197      2.96129423299319     -3.38311430571516
  H           2.15958845316823      1.62473067111534     -2.21184914727367
  H           1.01155437542244      1.53233081625968     -3.56781406154333
  C          -4.25647194449082      2.93976545585160     -0.86168708161031
  O          -4.38621023652669      3.77968476253768      0.02022591508355
  C          -5.38039693306240      2.10667061734094     -1.40204229503184
  H          -5.49050263084416      2.26669347174613     -2.47119611854579
  H          -5.14664707839538      1.05736129790040     -1.22981254783644
  H          -6.30456290894280      2.36506361385884     -0.89453831264907
