47
Coordinates from ORCA-job /home/esp/scriptDevelopment/drFrankenstein/11_PCY_CHARMM/04_torsion_scanning/torsion_NH1-CT1-CG321-CG2R61/scans_PCY_conformer_26/PCY_conformer_26_forwards/orca_scan E -79.898754606840
  H          -0.53473974050152     -2.33183480209587      3.76088428445096
  H           1.07117766699909     -3.37433386515461      2.41023630235569
  H          -2.13101067649107      1.13241387599413      3.62970357431205
  H          -2.33980750731774      4.44779299897921      0.39395326775909
  H          -1.89332646845718     -1.39224992635727      3.08253740056460
  H          -2.72936190619998      3.05889520794606      2.21894253866731
  H           1.29915269117943      0.40739054915326      1.20182526440646
  H          -0.63722245941700      4.73247822056900     -0.01451800032449
  H           0.95298012914086     -3.14594898354570     -1.85420969504841
  H           0.70104217026811      2.33068236513049     -0.21980823947383
  H          -0.96253415528770     -1.58371662803710     -1.69293887552643
  H          -2.73933961731047      2.24170122719866     -2.52571355800989
  H           1.94148486573904     -4.07121909292571      0.22102319718353
  N          -2.80462567865412      2.68645936471027     -1.60464120565673
  C          -1.70899566080794      3.44280836688996     -1.35500391374056
  C          -0.78995048541550      3.45518872630463     -2.48886049704992
  C          -1.43091665430870      3.98804966311147      0.00128486878553
  O          -1.09971777613099      2.85052574229454     -3.53470124074178
  C          -1.05217051649206      2.83370191837639      0.90806841962361
  C          -1.83793841430610      2.49216974328229      2.00029510922577
  C          -1.50867743172012      1.40782846479228      2.79177120755186
  C          -0.38125156991522      0.65169066248176      2.49697313956369
  C           0.42282833043558      0.99943221301600      1.41733459942126
  C           0.08467568503843      2.08292357466180      0.63042948070695
  O          -0.04294118749764     -0.44899778301278      3.26839328137604
  C          -0.82681616397235     -1.61577727806938      2.99221384583293
  C          -0.46608156793213     -2.13467962067608      1.62270235713929
  C           0.61289716745859     -3.00280309618785      1.50731994647339
  C           1.11252815039900     -3.38397219126737      0.27356738291280
  C           0.55961563700432     -2.86878088959329     -0.89000959042148
  C          -0.50527546346127     -1.99740049463241     -0.80747148805274
  C          -1.03182639628312     -1.64093345883337      0.43662036596340
  N          -2.16888476442978     -0.79023071352452      0.41099617778363
  O          -2.29445959035453     -0.01936853271916     -0.54150245532179
  O          -3.01398880460074     -0.86876720569179      1.30374041579875
  C           1.34257527740675      4.21226540204370     -3.42925059555357
  N           0.36815676883717      4.13368209311614     -2.36893068795067
  H           0.57911141847875      4.62096715674990     -1.51314507444685
  H           1.49010645101048      5.24860996894836     -3.73310839836120
  H           2.29388614441238      3.79414460306224     -3.09976303416643
  H           0.96601980224105      3.63767858746683     -4.27350127511400
  C          -3.95524761380385      2.49357772331182     -0.88232674499807
  O          -4.17776515306314      3.04949038431245      0.18278261791803
  C          -4.90861765102132      1.55341712220145     -1.55834627714074
  H          -5.15452022456899      1.91049570952756     -2.55456480228181
  H          -4.42952630615432      0.58002861324427     -1.64229785408572
  H          -5.81169075017239      1.46252431344736     -0.96298554230960
