47
Coordinates from ORCA-job /home/esp/scriptDevelopment/drFrankenstein/11_PCY_CHARMM/04_torsion_scanning/torsion_NH1-CT1-CG321-CG2R61/scans_PCY_conformer_26/PCY_conformer_26_forwards/orca_scan E -79.894147941010
  H          -0.27379199573511     -2.21586898444531      3.89497790328470
  H           1.20795237969483     -2.63090481332330      1.79033537864429
  H          -1.65009039037237      1.20477703739470      3.63525343684500
  H          -2.20010568032385      4.28167830241899      0.23222864364707
  H          -1.59725903813593     -1.07652542097353      3.57276746500781
  H          -2.29615717747717      3.12973054027374      2.26533235962690
  H           1.50798365476279      0.31115917189356      0.90847216636369
  H          -0.51558593733734      4.79673581590244      0.03501670799480
  H          -0.95507136858227     -3.64788176533050     -1.75489135558210
  H           0.85444058872219      2.24774964622848     -0.47681250238155
  H          -3.00685370486464     -2.71951730606346     -0.73044141332785
  H          -1.75365996332261      2.18546595600833     -2.87073554335491
  H           1.16471725521459     -3.61415669486621     -0.46822676055636
  N          -1.93951807547235      2.40889990573068     -1.88707544150385
  C          -1.27037259214606      3.53660629761374     -1.51870018307508
  C          -0.55507230167514      4.12817854225439     -2.63866630933120
  C          -1.20544741018402      3.96357432326543     -0.09504200809011
  O          -0.61060576321338      3.57558293195892     -3.75805061059918
  C          -0.77484524652217      2.81527075953676      0.79162692581887
  C          -1.45702473040129      2.52241337683736      1.96422987876949
  C          -1.09859298016639      1.43397129278882      2.73546947367303
  C          -0.03943141233029      0.62433082998541      2.34291997034486
  C           0.67613151514680      0.93527395283321      1.19385084209794
  C           0.30737630263294      2.02393970570427      0.42716930901697
  O           0.33967512026997     -0.48577839350093      3.07962964676023
  C          -0.66661004029121     -1.48990060335218      3.17920234570544
  C          -0.85685546722447     -2.14726480692573      1.83246658961733
  C           0.28535678175094     -2.66911358982247      1.23184564896820
  C           0.26187962115343     -3.20907630197893     -0.04032613780182
  C          -0.92381170541591     -3.22848959688346     -0.76277487356938
  C          -2.06791146451099     -2.70984483855339     -0.19908766063396
  C          -2.04743290548214     -2.17095280140113      1.09224276749010
  N          -3.28373311831936     -1.66855240949081      1.57815775344807
  O          -4.14357875757499     -1.36466269980672      0.75612478446995
  O          -3.46815540271449     -1.56201087570225      2.78865195644822
  C           0.87008674273627      5.93098697045908     -3.48705107372905
  N           0.14414781166151      5.26292840442915     -2.43523380471695
  H           0.13691396217959      5.70380727988260     -1.53013705493080
  H           0.46063754591770      6.92651348627998     -3.66052407068676
  H           1.92409806367960      6.01591552302272     -3.22266011078310
  H           0.76906083978113      5.33655357630578     -4.39334720842392
  C          -2.87608652858823      1.66629839280903     -1.21329098237733
  O          -3.30210296946751      1.97770678231936     -0.11109446617569
  C          -3.32459173520004      0.45308744205192     -1.97581908936565
  H          -2.46588028451043     -0.10783398982924     -2.33397921224596
  H          -3.92812861415062     -0.16877843438640     -1.31908952813385
  H          -3.92708342359143      0.75597808044719     -2.82891455266658
