47
Coordinates from ORCA-job /home/esp/scriptDevelopment/drFrankenstein/11_PCY_CHARMM/04_torsion_scanning/torsion_NH1-CT1-CG321-CG2R61/scans_PCY_conformer_26/PCY_conformer_26_forwards/orca_scan E -79.898196861690
  H           1.38508318530631     -1.95776099873059      3.40389292720089
  H           1.77169251175116     -0.32514346649322      0.65472953822766
  H          -1.50923191523142     -0.90588389571481      1.43387083888470
  H          -3.90016257115895      3.01046115963446      0.37962577132427
  H          -0.34873870241831     -1.88246723098722      3.10907317147038
  H          -3.03136968063332      0.66835493237211      0.37768801481912
  H           0.90673972144462      2.34185747553275      2.80093786265317
  H          -2.85610686225188      4.33254266690296      0.80893275198536
  H           1.43174176201979     -3.39146423929932     -2.29906430636616
  H          -0.63067851252378      3.93800282034512      1.70971161004245
  H           0.40207051196501     -4.87633154963887     -0.60256618436405
  H          -3.25029430505197      4.64674613867322     -2.78228082547710
  H           2.14094804842914     -1.10976117628387     -1.63742937420570
  N          -3.50910031718883      4.54558353653868     -1.79280524029151
  C          -2.66432301024149      3.67729214000916     -1.17320490487796
  C          -1.66387703274329      3.17600908077825     -2.11111301167835
  C          -2.87194722294372      3.37669708711024      0.27251463386081
  O          -1.72548675801010      3.54759675256453     -3.30332302363762
  C          -1.92919576960109      2.41576972699083      0.93889972080471
  C          -2.16480838104234      1.04600598182473      0.89861151871435
  C          -1.29824701358655      0.14908860567727      1.49999554409029
  C          -0.17836839575966      0.61830042824460      2.17768753996776
  C           0.04534989854042      1.99405858095942      2.25434170006638
  C          -0.81965651481396      2.87788311043694      1.64438421757925
  O           0.75962730277154     -0.16499489679964      2.78831490321415
  C           0.62626610489791     -1.56740950476676      2.71781287832111
  C           0.86445868420404     -2.12501613293976      1.33692650362217
  C           1.46060625133605     -1.31895646725895      0.37392596787648
  C           1.66932276550113     -1.76197296493648     -0.91997259450360
  C           1.27768975881444     -3.04082811236910     -1.29199747876786
  C           0.70057247093273     -3.86933163410743     -0.35586147280427
  C           0.49850394323163     -3.42836972986379      0.95679513676169
  N          -0.07343662318127     -4.35372743033283      1.86023495594307
  O          -0.57249602576656     -5.38734734936695      1.40852157932599
  O          -0.05785909333839     -4.11380779619310      3.07021949703466
  C           0.29584082147263      1.76952130765056     -2.53669621701553
  N          -0.70354710978663      2.34449780721544     -1.67133315279940
  H          -0.70053141309282      2.06895818711375     -0.70089719782470
  H           1.29211542715605      2.03024374374471     -2.18052171439797
  H           0.19153739794771      0.68395638134819     -2.55873630603370
  H           0.14952828508096      2.17060395597977     -3.53793113188625
  C          -4.59093423600011      5.24434325171305     -1.32474206450974
  O          -4.98240397349104      5.17864336954415     -0.16710838472160
  C          -5.23461706614336      6.09319620621868     -2.38323032641666
  H          -4.51852116003778      6.81561025348574     -2.76690745441546
  H          -5.57062102598387      5.46931386628234     -3.20767238261669
  H          -6.08412416078060      6.61743602119103     -1.95625403417914
