47
Coordinates from ORCA-job /home/esp/scriptDevelopment/drFrankenstein/11_PCY_CHARMM/04_torsion_scanning/torsion_NH1-CT1-CG321-CG2R61/scans_PCY_conformer_26/PCY_conformer_26_forwards/orca_scan E -79.901511104480
  H           1.24794909561087     -1.36124276689097      3.66171188116269
  H           1.67638629543167     -0.24042793789884      0.64060823210531
  H          -1.43288329783739     -1.19097497780682      1.17019764919462
  H          -4.04893485776334      1.82141955532172     -1.19800753137183
  H          -0.42680207520878     -1.62853758232424      3.18621749906092
  H          -3.11637192142032     -0.10221116710153     -0.19756067966223
  H           0.09949453601096      2.62414826517213      2.33132860313115
  H          -4.25527668801424      3.06727235344926      0.03759083121329
  H           2.24203294328576     -3.85480657540341     -1.56555781996857
  H          -1.61651804260552      3.72945800826270      0.93918020773072
  H           1.29054189956147     -5.13287671164328      0.33334336619316
  H          -2.69699829567618      5.42470381065292     -2.17171897745262
  H           2.44910644598078     -1.39172026566990     -1.38161097875075
  N          -3.24652249848283      4.90953873237992     -1.47398961263608
  C          -2.91748048832713      3.59322224209898     -1.50017762021077
  C          -1.88292831062240      3.30729050457515     -2.48496175652282
  C          -3.52217808601882      2.57277282553537     -0.60298354868720
  O          -1.43545169837240      4.23202681608563     -3.19419408315114
  C          -2.48094846522806      1.89261919332592      0.25652704279667
  C          -2.41135675272792      0.51013996790725      0.34524079448202
  C          -1.45552193545031     -0.11378333014520      1.13091401119335
  C          -0.54199717360310      0.65196508068917      1.84378695376990
  C          -0.61125532852836      2.04405872653399      1.76514698569253
  C          -1.56880284055704      2.65214282830184      0.98353010607259
  O           0.45905661652275      0.15548050832098      2.63203873053379
  C           0.53736540778111     -1.23781302266186      2.83760813758814
  C           1.02869184019920     -2.00514521488562      1.63637574609807
  C           1.58429487388066     -1.31257656651396      0.56676337947672
  C           2.02002323582121     -1.96266456168120     -0.57403138802141
  C           1.90821874269878     -3.34253328528383     -0.67851043393557
  C           1.37659140761893     -4.05809957084312      0.37089777179171
  C           0.94369036452012     -3.40461831221969      1.52987477684227
  N           0.43594110423093     -4.21894916857392      2.57043281394042
  O           0.19051147910597     -5.40034894970085      2.32548072271779
  O           0.25758263601572     -3.73531221540388      3.68874472790781
  C          -0.41001138872536      1.63502233195685     -3.49986290173150
  N          -1.47052673527726      2.03064606203481     -2.60696627686300
  H          -1.80160238507073      1.34360821312807     -1.94739151441431
  H           0.46802795473507      1.31954243447151     -2.93459874587069
  H          -0.74334482594013      0.81565859304715     -4.13548540228122
  H          -0.15196229672187      2.49415377520603     -4.11647740006063
  C          -4.13308702795659      5.61781388728284     -0.70373872207198
  O          -4.83972105502299      5.10526795175211      0.15523828857035
  C          -4.14092980295991      7.08379565843230     -1.02828387314786
  H          -3.15277348425186      7.50772091823488     -0.86751470938482
  H          -4.41498821876484      7.23276202367129     -2.06976939002185
  H          -4.85932090187607      7.58839091482129     -0.38938589304723
