47
Coordinates from ORCA-job /home/esp/scriptDevelopment/drFrankenstein/11_PCY_CHARMM/04_torsion_scanning/torsion_NH1-CT1-CG321-CG2R61/scans_PCY_conformer_26/PCY_conformer_26_forwards/orca_scan E -79.896028973420
  H          -1.16931886400502     -1.87320353462223      4.28470229578044
  H           0.31673051605127     -3.09405149175983      2.65460332909632
  H          -2.13871826189353      1.13248251905232      2.37074310861906
  H           0.42695585438607      4.42314070812132     -0.31183516054618
  H          -2.20229608944207     -0.59848857027097      3.61797982003525
  H          -1.86056211800221      2.77423954073352      0.60879762719882
  H           2.02224395951782      0.19152581814896      2.16765583508438
  H           1.35291679009393      3.24916998451275     -1.25899648742075
  H          -1.40131486610472     -4.13518932451386     -1.11742425457610
  H           2.30291059556285      1.85434630454197      0.37049450616218
  H          -3.20823072407705     -2.49095813535861     -0.71501019354220
  H          -2.22564241024480      2.52385712469188     -2.65754182432597
  H           0.36518838094453     -4.43713462759378      0.59409648596980
  N          -1.39169980033245      2.27507701529225     -2.11349873886156
  C          -0.70035627930944      3.39647770024240     -1.77941097246601
  C          -1.26815772430316      4.58117835122378     -2.41465943008190
  C           0.39041249297387      3.43067581610268     -0.76726974061752
  O          -2.30131319841125      4.46969567324034     -3.10681237999540
  C           0.23562404867923      2.41333461553741      0.33580795988932
  C          -0.99996539938609      2.20592086052396      0.93241203460130
  C          -1.16183201054808      1.26363727102708      1.93069018015341
  C          -0.07302692691657      0.51530152018957      2.36136085434386
  C           1.18068919682394      0.76111133364261      1.80782306738518
  C           1.32930562544914      1.69884446634972      0.80800869727733
  O          -0.13513165833344     -0.45187992868177      3.33579313264865
  C          -1.32913475686147     -1.22329512388597      3.42122113223386
  C          -1.47473510013657     -2.06162609356508      2.17286918936044
  C          -0.46288948338216     -2.98156235472263      1.91735516822698
  C          -0.42978580023377     -3.72667517879208      0.75312745402301
  C          -1.41701724314090     -3.55749484930059     -0.20789103082167
  C          -2.42205253458008     -2.64174535490495      0.00834330055856
  C          -2.46018931462017     -1.89504366269996      1.19011417744155
  N          -3.52621366919030     -0.97013608612440      1.31059883648593
  O          -4.00197456095092     -0.50141613806823      0.27559295895995
  O          -3.94625671609601     -0.65433635824361      2.42494850371569
  C          -1.10375952467246      6.98622470966321     -2.85011095734830
  N          -0.64053107976515      5.76144261573412     -2.24485472567503
  H           0.22842867252590      5.80053882770476     -1.73755726108621
  H          -1.30161182283629      7.73420828556132     -2.08237587414759
  H          -0.35984246167734      7.37222435195747     -3.54721337980705
  H          -2.02405327960904      6.76749358237021     -3.38869137315819
  C          -1.06832597181869      0.94370598340559     -2.00838294121831
  O           0.01072313474176      0.55310941837389     -1.59193382687232
  C          -2.17522443508210      0.03863125515845     -2.46157797413298
  H          -1.78878619573333     -0.96989290705701     -2.57207726172372
  H          -2.96045656993905      0.03492716304104     -1.70452319764426
  H          -2.60271241611462      0.37960690402103     -3.39949066918207
