47
Coordinates from ORCA-job /home/esp/scriptDevelopment/drFrankenstein/11_PCY_CHARMM/04_torsion_scanning/torsion_NH1-CT1-CG321-CG2R61/scans_PCY_conformer_26/PCY_conformer_26_forwards/orca_scan E -79.891685016570
  H          -0.81943239026157     -2.22323911607230      4.14241968205461
  H           0.69302442254492     -2.95986070319115      2.21665191946648
  H          -2.19050535154778      0.86368380884905      2.65265323857975
  H          -0.59927881843028      4.54948980649409      0.08372003844386
  H          -2.00850175579878     -0.97888086955760      3.72717505629957
  H          -2.18301051625422      2.68457692357612      1.04535492622902
  H           2.02060946745856      0.37862141534450      2.13841711335242
  H           0.92908349031031      3.96595073216886     -0.59236314613004
  H          -1.27550737939812     -3.77938023787392     -1.48666350330053
  H           2.02879354252766      2.22723550442028      0.50668340307338
  H          -3.23438543173330     -2.48659343855338     -0.69594767460797
  H          -2.17970438946507      2.59342665695395     -2.77304757640147
  H           0.69826825513488     -4.01214023040639     -0.00700560638429
  N          -1.59806540444351      2.33785604185674     -1.96151429983585
  C          -0.81200635372410      3.40713518421027     -1.65945404089317
  C          -0.97850667407787      4.46219082087753     -2.65860876743152
  C          -0.10547986123246      3.68245533257658     -0.37236961727960
  O          -1.72706388897807      4.26364493490745     -3.63905431681854
  C          -0.08217560187744      2.56856412544243      0.63571000218682
  C          -1.25297754180079      2.18353952467754      1.27428098475616
  C          -1.26069828704308      1.14088081022008      2.17947283149820
  C          -0.07913673064611      0.47041926701963      2.47235266073531
  C           1.10803685009505      0.89281258043742      1.88319452172687
  C           1.10301900738859      1.93178435391925      0.97611439387397
  O           0.00847737381984     -0.59048967029842      3.34287829024168
  C          -1.09996272383940     -1.48199558257360      3.38999662421094
  C          -1.26476232321797     -2.15759349838629      2.04888893030773
  C          -0.17143866046809     -2.87621986586280      1.57637481628567
  C          -0.16526884280478     -3.45703334234797      0.32213847247088
  C          -1.26856702388560     -3.32503805858258     -0.50945641448266
  C          -2.35831372673347     -2.60407707806563     -0.07740626714844
  C          -2.36499405394195     -2.01823441158438      1.19212750161360
  N          -3.51976591507782     -1.27122784850046      1.52907950191698
  O          -4.16700018804071     -0.76522090413036      0.61253651351291
  O          -3.84548904180687     -1.13620476467379      2.70911552844900
  C          -0.38060345904587      6.70776294861669     -3.43175475138781
  N          -0.30799877032541      5.61752445798742     -2.48937852147066
  H           0.30060689077021      5.73565611022097     -1.69646157979843
  H          -0.74661086363902      7.60847848469352     -2.93931801807077
  H           0.60154142877568      6.90540064467467     -3.86157845430459
  H          -1.07040863778790      6.42212551384605     -4.22374954727797
  C          -1.55641701989624      0.99554913518211     -1.66041920341051
  O          -0.67571476269927      0.47430294667008     -0.99517226693323
  C          -2.71309020631223      0.23156740423772     -2.23892117495544
  H          -2.37066515566827     -0.75391179808745     -2.54136560292370
  H          -3.45830549637657      0.09815317431347     -1.45305382474950
  H          -3.17063748054572      0.74455277435404     -3.07727277528919
