47
Coordinates from ORCA-job /home/esp/scriptDevelopment/drFrankenstein/11_PCY_CHARMM/04_torsion_scanning/torsion_NH1-CT1-CG321-CG2R61/scans_PCY_conformer_26/PCY_conformer_26_forwards/orca_scan E -79.890604014430
  H          -0.71211023161679     -2.26622747905053      4.12408764619225
  H           0.75396998161976     -2.99749048940099      2.19775176466324
  H          -2.16861601233491      0.87078459778741      2.82232876084859
  H          -0.90063770276325      4.52623616906620      0.12955094696104
  H          -1.93847753883431     -1.04399943471862      3.74901972103247
  H          -2.26347892118371      2.72046661458963      1.24829180486352
  H           1.99440238322556      0.37912659868536      2.00853009404219
  H           0.72904662377376      4.12847065644597     -0.43996292872358
  H          -1.21497021754325     -3.74668147593291     -1.51994184953877
  H           1.89949890094831      2.25876543724750      0.41419939343198
  H          -3.16463459343547     -2.45265443400730     -0.71260991836186
  H          -2.10949633121347      2.58327743862664     -2.86403010721989
  H           0.75446977153346     -4.01807436921561     -0.04030172198349
  N          -1.64007907052161      2.34555225470224     -1.97617412489933
  C          -0.85148009316424      3.40322879449241     -1.64004952536100
  C          -0.89186868893462      4.41518229078599     -2.69648729948745
  C          -0.27953784448169      3.72905260100111     -0.29786802436456
  O          -1.53079285994002      4.17673626512567     -3.74399659594695
  C          -0.19541955291915      2.60556433724534      0.69670828218497
  C          -1.32149891061912      2.21450504372941      1.40712080102078
  C          -1.27182434590644      1.15674161804572      2.29333271138797
  C          -0.07669161500125      0.47550237563327      2.48966318608922
  C           1.06941787701242      0.90272580345141      1.82775976929254
  C           1.00744723352312      1.95851297801809      0.94246914672300
  O           0.06202821316910     -0.60237052630750      3.33398735773747
  C          -1.02499265048081     -1.52063644926744      3.38912041810776
  C          -1.19758339579375     -2.17823951137174      2.03976186905242
  C          -0.10920516135542     -2.89810436203254      1.55793944011656
  C          -0.10538309831082     -3.46108315054483      0.29552080269093
  C          -1.20613392928209     -3.30788278003004     -0.53568222520402
  C          -2.29115655140960     -2.58591238870514     -0.09387339013929
  C          -2.29663742585692     -2.01911426652102      1.18432947862876
  N          -3.45106015721827     -1.27615294521493      1.53142613306696
  O          -4.11445020689405     -0.77968014461609      0.62236204537639
  O          -3.76532847252510     -1.13940030764325      2.71396224364275
  C          -0.20611990030929      6.62604400735998     -3.49569645893574
  N          -0.23546386700041      5.57511012473125     -2.50736168261805
  H           0.26633308688913      5.73794267103025     -1.65030302595425
  H          -0.62701529557062      7.54322392882466     -3.08413604944406
  H           0.81731717165368      6.81334826617279     -3.82102686934050
  H          -0.80233699064975      6.30392423389204     -4.34739623955485
  C          -1.72197023459659      1.02269658602075     -1.60685577001237
  O          -0.95612747010857      0.47952359990514     -0.82657191096196
  C          -2.86017081916722      0.29986787252298     -2.27113148322403
  H          -2.49500040626876     -0.63962292778481     -2.67757907147459
  H          -3.59698823981111      0.06162362604214     -1.50312735558652
  H          -3.33018244032581      0.88759065118397     -3.05106018881676
