47
Coordinates from ORCA-job /home/esp/scriptDevelopment/drFrankenstein/11_PCY_CHARMM/04_torsion_scanning/torsion_NH1-CT1-CG321-CG2R61/scans_PCY_conformer_26/PCY_conformer_26_forwards/orca_scan E -79.899489615630
  H          -1.67909566197833     -0.92799056636959      4.43486283934415
  H          -0.94116108796729     -3.03632179744194      3.79522751998149
  H          -1.15443909790260      2.53723870476468      2.90881180022442
  H           1.04571901004664      3.95919647024433     -1.23095158912017
  H          -2.35210954788677      0.25460445580030      3.27768441735853
  H          -0.75783315214747      3.78396313888932      0.83300539464535
  H           1.18373004501995     -0.70367435055877      1.42192154414258
  H           1.27390364747656      2.38691272506211     -2.02568429787344
  H          -1.20164956610782     -4.42992675563473     -0.23386454650556
  H           1.57921027941499      0.53978934948887     -0.67406151508640
  H          -1.97481561832102     -2.18645314724483     -0.93208247511870
  H          -2.25210159209237      2.20532849419403     -2.93072240680018
  H          -0.71458754668564     -4.85416781927758      2.15991921861610
  N          -1.27471172051712      2.01198978825906     -2.68885889278077
  C          -0.73205330255558      3.05586642064975     -2.02198534140238
  C          -1.66105653976526      4.17750920651311     -1.91716149634899
  C           0.61168447267123      2.97294025913728     -1.38877768144249
  O          -2.79990310241415      4.07768003188824     -2.41485106649726
  C           0.44483162240366      2.24863930698115     -0.06610167060344
  C          -0.31600226734017      2.80761657579476      0.95526684170413
  C          -0.54508934913280      2.11216534502861      2.12603443012605
  C          -0.01672746576903      0.83667569231070      2.28532428310310
  C           0.77055469195671      0.28381163225557      1.28321940851727
  C           0.99812240438389      0.98878484097023      0.11596790081316
  O          -0.27965310714823      0.10076095467168      3.42995464495047
  C          -1.57923442274686     -0.50206837607630      3.43593665589578
  C          -1.62842237857346     -1.59323411037963      2.39440749625161
  C          -1.18851746270523     -2.85989615413139      2.76022392027971
  C          -1.04800441379834     -3.88133541810847      1.83643629815696
  C          -1.32095946763340     -3.64671547736720      0.49649930599353
  C          -1.75031334911859     -2.39874590723561      0.10132983797691
  C          -1.91928808496863     -1.37369493649436      1.03707060819535
  N          -2.41396335883395     -0.14492019191725      0.52746407533989
  O          -2.23659002586244      0.10245388187344     -0.66796146518273
  O          -3.03019692363817      0.62897346431634      1.26378542855627
  C          -2.07901005421132      6.46170316697197     -1.13419292088336
  N          -1.24234065391418      5.29860243675820     -1.29805602734551
  H          -0.30635402922468      5.34833325096968     -0.92881972142001
  H          -2.22437230537743      6.67796193377691     -0.07533328062266
  H          -1.62608044408077      7.32557002163713     -1.62033744165832
  H          -3.04218550573353      6.24915274476860     -1.59452052346131
  C          -0.76016004162382      0.79177821096546     -3.05461152181481
  O           0.39780065720061      0.46213779895697     -2.85100165168487
  C          -1.76967935687493     -0.06550017917526     -3.75770569432041
  H          -1.30294190898668     -0.99440982135574     -4.06974011834978
  H          -2.58171742832783     -0.27538553093905     -3.06465606180483
  H          -2.17322548860834      0.45430023580918     -4.62231446204441
