47
Coordinates from ORCA-job /home/esp/scriptDevelopment/drFrankenstein/11_PCY_CHARMM/04_torsion_scanning/torsion_NH1-CT1-CG321-CG2R61/scans_PCY_conformer_26/PCY_conformer_26_forwards/orca_scan E -79.898253533280
  H           0.28103134692746     -2.41783920701852      3.44703487009145
  H           2.30312083010785     -2.53222228736722      2.18995629316451
  H          -2.38711215752087      0.09506482033834      2.76891810412106
  H          -2.65892729685809      4.32662508111735      0.53840577162552
  H          -1.24445328238181     -1.84911157047092      2.72791724679403
  H          -3.21704741636217      1.94300044020679      1.39101023765930
  H           1.61113045834695      1.48748521369485      2.23564355155959
  H          -1.05128959317039      4.53123030019435     -0.18722003088172
  H           2.30405747379070     -1.99710438799223     -2.04983821193486
  H           0.77199037454253      3.39185537171599      0.91287798198909
  H          -0.07732243781371     -1.30229311547418     -1.93458483227434
  H          -3.73008444710130      2.78718275737615     -2.51365709924688
  H           3.47927196555510     -2.63740866555044      0.03468085052906
  N          -3.62301006888334      3.25475197312902     -1.60520442864681
  C          -2.33443379565263      3.16631097281204     -1.19211989333014
  C          -1.50538316640417      2.46087573935506     -2.16360700746712
  C          -1.83107185975089      3.80540372851785      0.05777094475155
  O          -2.02523656193287      2.02077376760517     -3.20827981878655
  C          -1.27821110058977      2.75528843461958      0.99383894364712
  C          -2.15595066435040      1.84159097756944      1.56452279275490
  C          -1.68963931946927      0.80024793625558      2.34113042028470
  C          -0.32083621467523      0.64181794551433      2.53580209442712
  C           0.55733330049418      1.59518392543980      2.03443182202749
  C           0.07728137848160      2.64929861620953      1.27831360750674
  O           0.20791286306894     -0.42683376625890      3.23130656354033
  C          -0.15993244003053     -1.71760379829731      2.73672794242599
  C           0.44533455571225     -1.90767621245070      1.36590866554426
  C           1.78110278865533     -2.28264904026346      1.27976394843519
  C           2.44682298804478     -2.32901166594054      0.06665249517376
  C           1.79142036815276     -1.96988375570686     -1.10215920193050
  C           0.47003027086893     -1.57806221357889     -1.04591169814021
  C          -0.20535633434571     -1.55579527752952      0.17529114980568
  N          -1.57327567457411     -1.16989473378601      0.12165665677662
  O          -1.89618878969165     -0.31099017509060     -0.69662473889888
  O          -2.38376105758301     -1.71666808745186      0.86840987198198
  C           0.73064889599977      1.66867893707966     -2.77512408951354
  N          -0.18466171194995      2.37831793696070     -1.91666491059677
  H           0.15537762915230      2.64444725741507     -1.00600111026954
  H           1.51448206432354      2.34289722270009     -3.12048330657765
  H           1.18209933371261      0.83378685075094     -2.23845501059151
  H           0.16980862826460      1.29604115803957     -3.63028955203823
  C          -4.75115258042096      3.74133351175625     -0.99652238563957
  O          -4.75265474328310      4.24456437735977      0.12045485069960
  C          -5.97899072152004      3.59486297108286     -1.84824141551166
  H          -5.83596179669340      4.10275746328850     -2.79851947493020
  H          -6.16950826274206      2.54230729718040     -2.04424182926788
  H          -6.82979401845064      4.02506497494307     -1.32867763084222
