47
Coordinates from ORCA-job /home/esp/scriptDevelopment/drFrankenstein/11_PCY_CHARMM/04_torsion_scanning/torsion_NH1-CT1-CG321-CG2R61/scans_PCY_conformer_26/PCY_conformer_26_forwards/orca_scan E -79.901382080060
  H           1.01148921302652     -1.36051813197633      3.76554325939774
  H           1.68201252693250     -0.10114255884053      0.83674342098899
  H          -1.41083846552844     -1.19845044159580      1.01727436356461
  H          -4.13437054653286      1.79303170173804     -1.27200933028628
  H          -0.58912914517085     -1.68061329568096      3.10380953448506
  H          -3.06427668626857     -0.13018599060080     -0.39993712550437
  H          -0.22729669743254      2.61856768521834      2.52704094401434
  H          -4.34341630210680      3.06335165454425     -0.05476389543210
  H           2.68512359832756     -3.60187117212261     -1.39758911518005
  H          -1.90795798834980      3.70502411902117      1.07792361112014
  H           1.61387489409809     -4.99413899495629      0.35108707869048
  H          -2.54378549879114      5.36830183810037     -2.14572457688423
  H           2.72945959717685     -1.13853477808208     -1.12246320810503
  N          -3.10732104234914      4.88087015275721     -1.43947510814766
  C          -2.95409633948677      3.53851440922579     -1.56542599438458
  C          -2.02189346093974      3.19212137038385     -2.62925131272721
  C          -3.61164605623838      2.54394814438673     -0.67575715666413
  O          -1.53109231906810      4.09524783697359     -3.33755262401482
  C          -2.59370940981169      1.86780774979160      0.21811860368347
  C          -2.43806218566102      0.49021360892936      0.22474396064944
  C          -1.50269367373710     -0.12438989911266      1.04230600907547
  C          -0.69932505070488      0.64699022854279      1.87177313852573
  C          -0.85305928362805      2.03453336054341      1.87158557827505
  C          -1.78780498358536      2.63266075953065      1.05569599918868
  O           0.26460758392392      0.16113466137522      2.71130957056899
  C           0.38677817349283     -1.23460448172820      2.87480578777342
  C           1.03869308436503     -1.93190592157219      1.70804911546614
  C           1.66119672694226     -1.17362945172734      0.72336270260710
  C           2.25152124789025     -1.75964473397668     -0.38214067223801
  C           2.23109725133891     -3.13920897660721     -0.53704113865061
  C           1.63413691452514     -3.91824752899654      0.42866860963967
  C           1.04559470336916     -3.32951895017668      1.55326991359036
  N           0.47942775342681     -4.20577166273861      2.50999640447131
  O           0.33834677105956     -5.39142931212652      2.20982326514350
  O           0.14911288563393     -3.77025548505901      3.61334004096124
  C          -0.80518006651831      1.42377926713058     -3.80777089652481
  N          -1.74457371323173      1.88750754140094     -2.81712672931186
  H          -2.09174573425675      1.21146317438919     -2.15538417110305
  H           0.06302908245128      0.97028272591153     -3.32889986157182
  H          -1.27988517573104      0.69146173827128     -4.46023177381512
  H          -0.48679504330597      2.28253102447175     -4.39603857766767
  C          -3.85575258601036      5.64200720392360     -0.57807698410880
  O          -4.56911190294073      5.16695109304667      0.29643994961184
  C          -3.69929960703900      7.11531958189224     -0.82252799141160
  H          -2.65654647526903      7.40348590686573     -0.71478895905159
  H          -4.02295742026364      7.36110209070000     -1.83093451353369
  H          -4.30286914802259      7.66385113861111     -0.10579914517377
