47
Coordinates from ORCA-job /home/esp/scriptDevelopment/drFrankenstein/11_PCY_CHARMM/04_torsion_scanning/torsion_NH1-CT1-CG321-CG2R61/scans_PCY_conformer_26/PCY_conformer_26_forwards/orca_scan E -79.892673929520
  H          -0.74789665192365     -2.18819932339888      3.97012986732925
  H           0.98309774197069     -2.68881574309923      1.95451931887514
  H          -1.44571402483076      1.43295286267747      3.75970150395614
  H          -1.65762563864599      4.50194010676859      0.30523935885504
  H          -1.87196046371968     -0.92281464205771      3.43336895612686
  H          -1.85791848837498      3.39965473414892      2.34835549908656
  H           1.32099526118586     -0.06662563439776      0.88118378550617
  H           0.06605369275929      4.62039640358069     -0.08515447176871
  H          -0.99938305543395     -3.88278517498440     -1.64265602095933
  H           0.91142374050750      1.90912803727363     -0.53892058692622
  H          -3.09145402316642     -2.87828754571008     -0.78428710272227
  H          -1.56553093520192      2.22970967044491     -2.87541757483403
  H           1.04808907430133     -3.79869907693940     -0.24601545739337
  N          -1.66260795643047      2.37664472157806     -1.86386162300407
  C          -1.08496804160806      3.56017887945539     -1.51348520933560
  C          -0.63792418678265      4.30078112186461     -2.68426124283285
  C          -0.80058388763736      3.95620364280939     -0.10515056244473
  O          -0.77179446139912      3.79484619002490     -3.81882055651705
  C          -0.51976206235753      2.77904746123099      0.79488592749389
  C          -1.15460882595205      2.64901028443214      2.02251606928090
  C          -0.93019701036555      1.54243473782313      2.81714463584855
  C          -0.05214195483991      0.55262017624255      2.39420554051835
  C           0.62635497037547      0.69762894072772      1.19215495609640
  C           0.39343122273160      1.80808383479650      0.40346749451098
  O           0.16072877757469     -0.58274014905127      3.16504687354485
  C          -0.95713735555063     -1.46412051392609      3.17830890807861
  C          -1.07244365175969     -2.17800589745789      1.85285077216653
  C           0.09300031075548     -2.74721863181025      1.34688381401808
  C           0.12960890430781     -3.35879846765817      0.10804722879662
  C          -1.01568670850558     -3.40705221494793     -0.67593257634149
  C          -2.18166594797518     -2.84595780580773     -0.20525735450121
  C          -2.22153809519768     -2.23454711762527      1.05255972299406
  N          -3.47344584911158     -1.69383327679802      1.44781619892542
  O          -4.28357846964132     -1.41768482575756      0.56880817614744
  O          -3.71691703229717     -1.53116298268670      2.64042252582956
  C           0.34399577872690      6.34998401749021     -3.59966322942765
  N          -0.09507348683244      5.52234199194601     -2.50267490240155
  H          -0.08873291108134      5.93639577910114     -1.58499543796179
  H          -0.27387329681504      7.24521336433143     -3.67835064711515
  H           1.38401680546456      6.64127793312427     -3.45540090941595
  H           0.25162385543681      5.76890756114638     -4.51545868195819
  C          -2.48465082430836      1.52301501373466     -1.17269349152901
  O          -2.87237176799858      1.74258255506681     -0.03466570024985
  C          -2.85637369213101      0.30310378509936     -1.96679609252979
  H          -1.96659333002982     -0.29051140490563     -2.16371465335080
  H          -3.56711999278063     -0.28656386670383     -1.39329163874260
  H          -3.30413605541189      0.58834048880399     -2.91469140972224
