47
Coordinates from ORCA-job /home/esp/scriptDevelopment/drFrankenstein/11_PCY_CHARMM/04_torsion_scanning/torsion_NH1-CT1-CG321-CG2R61/scans_PCY_conformer_34/PCY_conformer_34_backwards/orca_scan E -79.897032565070
  H          -3.04270225822735     -2.72512764619002      2.49485682805454
  H          -0.43348792322553     -4.05754198762656      0.92266180748307
  H          -3.06901670867857      1.54149515723124      1.65535907264477
  H           0.62193491148149      3.38308954183641     -1.13235228105750
  H          -2.41505177032718     -2.76956245054317      0.82595438703141
  H          -1.99699719089682      3.19461676840342      0.17117524831938
  H          -0.69790236063960     -1.55012505580145     -0.09492364594896
  H           0.50140586802644      2.21727412979895     -2.45847436874902
  H           2.77432484076106     -2.91644281498566      3.50311962835971
  H           0.34276974978860      0.07740785793722     -1.56736228077968
  H           1.27994468403341     -1.26771945590060      4.60429066541261
  H          -2.59850599222171      3.75980674483574     -3.65362216026284
  H           1.88225459266310     -4.34136341050514      1.68908542211544
  N          -1.89584646723867      3.07294294671319     -3.36223203288124
  C          -1.09092957284032      3.59829902390607     -2.39560233696942
  C          -1.45942352950716      4.96204887389116     -2.06612586641522
  C          -0.06927946709088      2.76697609879132     -1.70684547984478
  O          -2.36835733083029      5.52792735010713     -2.71299749066313
  C          -0.73586238597098      1.75271100902087     -0.79825215576141
  C          -1.70746608854748      2.15597404213565      0.11286716634109
  C          -2.31624822143423      1.24049421476025      0.94351475947095
  C          -1.96612959176384     -0.10829612306948      0.88198014631045
  C          -0.99576711005844     -0.51763567912367     -0.02280286637016
  C          -0.39473299081621      0.41204196827653     -0.85514506839029
  O          -2.63963733304859     -0.92627053026146      1.74918140588209
  C          -2.30068276676892     -2.30247043043171      1.81032582492495
  C          -0.90905950320063     -2.53927613355024      2.34214754207916
  C          -0.06117694523852     -3.45992528285440      1.74041312213883
  C           1.24730083148119     -3.61314942246876      2.16726979494580
  C           1.74938752627964     -2.81722222653732      3.18601661033184
  C           0.92610547717293     -1.89445479151187      3.80046198311701
  C          -0.40209451494535     -1.78067631549741      3.39994856824748
  N          -1.22813816716155     -0.87464148142771      4.13419504913189
  O          -2.34758447495613     -1.23539992553101      4.46071444292494
  O          -0.74598886744065      0.20421082768355      4.45071708125875
  C          -1.10082754809723      6.93189509204570     -0.65074655104222
  N          -0.79397247440213      5.58742807389042     -1.07112344982602
  H          -0.11371261649923      5.08000676138292     -0.52926224427901
  H          -1.86883426477551      7.32282593638042     -1.31599245477401
  H          -1.47354032027092      6.93758808641806      0.37448863280078
  H          -0.21109345950044      7.55824740218940     -0.71399972810988
  C          -1.84598537925434      1.87486112582968     -4.02125348243205
  O          -0.99354979752080      1.02314666230918     -3.80969094049174
  C          -2.94865050976448      1.72293253667807     -5.03218469993053
  H          -2.89321865443089      2.51954192879704     -5.76974318017912
  H          -2.85064832703276      0.76219488942035     -5.52821278233531
  H          -3.91432559706346      1.77731611314764     -4.53576764183327
