47
Coordinates from ORCA-job /home/esp/scriptDevelopment/drFrankenstein/11_PCY_CHARMM/04_torsion_scanning/torsion_NH1-CT1-CG321-CG2R61/scans_PCY_conformer_34/PCY_conformer_34_backwards/orca_scan E -79.895605725120
  H          -2.88841188054251     -3.17282359301489      1.96580220591447
  H           0.12341704437248     -4.04727543936822      0.87087453290213
  H          -3.42876838414182      1.06705127283347      1.16648965400771
  H           0.50796957915772      3.43455971819254     -0.88556496179880
  H          -1.97482784350599     -3.05434429153562      0.43809631741865
  H          -2.37767123167370      2.91621137577917     -0.08645721569642
  H          -0.31063130020347     -1.55531044013529     -0.11421551329031
  H           0.56406074817419      2.40575626660721     -2.32489134059129
  H           2.62420486257693     -2.56841658880208      4.00303014924006
  H           0.70708709828591      0.25910828568717     -1.36382074305365
  H           0.73137964035702     -1.20087590368889      4.84535512177937
  H          -2.76592248986680      3.87443143516749     -3.30927209473378
  H           2.28521044023907     -4.02915434475732      2.03572531804687
  N          -2.07286894240478      3.16465925522251     -3.05191008378542
  C          -1.10079204236067      3.70935354132799     -2.26495914742981
  C          -1.29527639290303      5.13583358306403     -2.08002167902828
  C          -0.10001592670904      2.85157764494082     -1.57722110862200
  O          -2.27418984657215      5.69635151204817     -2.62154974014247
  C          -0.75620591241747      1.71797479539838     -0.81889344517079
  C          -1.92562471125424      1.93494455283130     -0.09776832150144
  C          -2.52113016519344      0.90964709972037      0.60472298149830
  C          -1.95424720284995     -0.36414698424217      0.60687919217841
  C          -0.77943632771526     -0.58579185001848     -0.09933608365742
  C          -0.19530600048722      0.45171975381787     -0.80531955323086
  O          -2.63498969709478     -1.30500153182467      1.33325738438863
  C          -2.10871139860384     -2.61832964289907      1.43428964189862
  C          -0.81388845105999     -2.67466855156117      2.20622207657149
  C           0.25383478362183     -3.43798537778972      1.75197647491426
  C           1.47540433197574     -3.42023929798850      2.40393407151563
  C           1.66741121462572     -2.60426037331736      3.50888830905391
  C           0.62109118701235     -1.83674633498295      3.98066891116699
  C          -0.61898840675822     -1.89750297636133      3.35073529723660
  N          -1.68602467576165     -1.15341393838210      3.94180984976195
  O          -2.78264128519131     -1.68019012571090      4.04398539645930
  O          -1.42983227236432     -0.03682033644276      4.37234880523557
  C          -0.51008362246470      7.24097463134084     -1.09942277479622
  N          -0.40386926714829      5.82237465141119     -1.33465914804621
  H           0.38772756044190      5.34789852107432     -0.93291621362544
  H          -1.41382834477400      7.59485209581365     -1.59257295721840
  H          -0.57666498717970      7.44294061054994     -0.03015536033155
  H           0.35425810338924      7.76196452259793     -1.51232221392408
  C          -2.16760805534875      1.92171294642650     -3.61642768325196
  O          -1.29972186744699      1.06757662158288     -3.50491079558058
  C          -3.44207505559232      1.73022992101866     -4.39079511755578
  H          -3.51305414893553      2.46799609850621     -5.18598075900490
  H          -3.45497697035334      0.73280373672306     -4.81920945776906
  H          -4.29577148735072      1.85079347313978     -3.72848817835191
