47
Coordinates from ORCA-job /home/esp/scriptDevelopment/drFrankenstein/11_PCY_CHARMM/04_torsion_scanning/torsion_NH1-CT1-CG321-CG2R61/scans_PCY_conformer_34/PCY_conformer_34_backwards/orca_scan E -79.893991265860
  H          -2.20640007464523     -3.63022544214482      1.42692535193400
  H           0.73055851729564     -3.13943561655014     -0.06262296322386
  H          -4.09426936640817      0.25521887264338      1.92897798812839
  H          -2.86155299309848      4.17710766180121     -0.23768992605047
  H          -1.61156471457434     -2.82924194328811     -0.05147129675112
  H          -3.86560902747464      2.59225667822878      1.17548807544565
  H          -0.57134972643342     -0.78388929730573     -0.24985670040671
  H          -1.15212696681346      4.12582229485312      0.21956023711580
  H           3.11916409405853     -1.80322536821437      3.21768191438046
  H          -0.34187969827788      1.52117225712131     -0.97911961545917
  H           1.05476393748454     -1.42101682954003      4.54279351862724
  H          -1.57592229552246      3.05174973546934     -3.68022771078080
  H           2.93843686175792     -2.71360412261170      0.92484292347180
  N          -2.09378188150322      2.97179560432474     -2.79910325669274
  C          -1.53621532382977      3.77154741828378     -1.84447536419129
  C          -0.45597282436483      4.57850141982669     -2.38279461841471
  C          -1.91160830204427      3.65875260140463     -0.40888908430244
  O          -0.13769858670933      4.45495563822586     -3.58613222471935
  C          -2.08721764654217      2.22494479522295      0.03670259056509
  C          -3.13948063499765      1.85683538482296      0.86653333802930
  C          -3.27937939087712      0.55264485233435      1.28755264470295
  C          -2.36626182747891     -0.42216132657431      0.88665113745180
  C          -1.30419864668692     -0.06155712244188      0.06871546089174
  C          -1.17454097770691      1.25368738503321     -0.34491993271335
  O          -2.61334382848620     -1.68467748878605      1.35782802018303
  C          -1.71518815495037     -2.73414526102420      1.03504453685852
  C          -0.36035600863984     -2.56268363662932      1.67604541958117
  C           0.80479193023555     -2.77790207190234      0.95146517494534
  C           2.04925684165109     -2.52958719231437      1.50594968896188
  C           2.15366074845493     -2.02193240338436      2.79238144882194
  C           1.01003846304885     -1.80171764430843      3.53421056937086
  C          -0.23545082113726     -2.10035824730766      2.98852622579166
  N          -1.37316241922517     -1.94095214295199      3.83807530709934
  O          -2.23283675705759     -2.80785294593521      3.83594854967840
  O          -1.40002812050534     -0.96389492242399      4.57445348726668
  C           1.23477818946856      6.31445560780902     -2.01326371872538
  N           0.16943026044176      5.45194381388618     -1.56514909564779
  H          -0.15234866998370      5.57185910425001     -0.61895935401982
  H           1.44148339677962      6.07607819231539     -3.05515602554190
  H           0.93941670979208      7.36118531151094     -1.93436397338526
  H           2.13148975706132      6.14684155330986     -1.41661595731673
  C          -3.28326428924417      2.29254930248948     -2.80082839874244
  O          -4.08329854108206      2.34575850308941     -1.87826075086968
  C          -3.49490849828720      1.49366251600694     -4.05658748597442
  H          -2.68404060149905      0.78090102145257     -4.18164856842415
  H          -4.43914241242005      0.96242947911425     -3.98768956681771
  H          -3.51386967902311      2.15340402080862     -4.92049802013163
