47
Coordinates from ORCA-job /home/esp/scriptDevelopment/drFrankenstein/11_PCY_CHARMM/04_torsion_scanning/torsion_NH1-CT1-CG321-CG2R61/scans_PCY_conformer_34/PCY_conformer_34_backwards/orca_scan E -79.897418630100
  H          -3.11342678683631     -2.30570053139858      2.93950533311828
  H          -1.13068407782499     -3.94177159692190      0.83903090621867
  H          -2.57019471385279      1.95303853494006      2.25792645028703
  H           0.56755400468617      3.62624499630351     -1.02575422253049
  H          -2.83564422592929     -2.34626331388562      1.17809281679562
  H          -1.50443630467127      3.50433664270309      0.67135481020149
  H          -1.12532880664259     -1.35835260972752     -0.02017025595187
  H           0.61551592638902      2.30614756117263     -2.20987749023913
  H           2.67121123590414     -3.49677549273137      2.73531842066272
  H          -0.08159112445901      0.17604250235590     -1.59104190113279
  H           1.72834731134336     -1.69993157942082      4.16594313199057
  H          -2.45140799831255      3.45857458988066     -3.79718348264635
  H           1.20656681197728     -4.64519008390394      1.10640948513222
  N          -1.66391204280376      2.90618601390075     -3.44149859521030
  C          -1.08655692427988      3.54175691898077     -2.38276169770612
  C          -1.72581895926933      4.81480841392859     -2.10444491397579
  C          -0.03410993885253      2.89024413523239     -1.55732051610916
  O          -2.68278828064516      5.19217931884408     -2.81550708973761
  C          -0.69639113685897      1.94737109606306     -0.56924371792097
  C          -1.41412713749616      2.44090362549383      0.51576455250651
  C          -2.01935781571943      1.58242909847436      1.40765457492431
  C          -1.92662855350903      0.20151142142569      1.23229708810627
  C          -1.22066479822734     -0.29851283900037      0.14621841000334
  C          -0.61802417834664      0.57520909355667     -0.74376235690791
  O          -2.56439258965355     -0.55180247479245      2.18055647453040
  C          -2.45662557737268     -1.96537630599540      2.13295997481803
  C          -1.04946423384314     -2.45646619119734      2.36670175865368
  C          -0.50753187962227     -3.46418719610357      1.57938204008640
  C           0.81326350019369     -3.85412546268839      1.72419823218705
  C           1.63605954637044     -3.21390533858477      2.63895088969272
  C           1.12073590834501     -2.21016706105082      3.43470950739502
  C          -0.22127694691986     -1.85797200555924      3.31952493332672
  N          -0.71768391433548     -0.88039339294972      4.23581419247857
  O          -1.80401290488473     -1.06643979579239      4.76029355267299
  O           0.00256174744946      0.07435559015530      4.49355158849724
  C          -1.81078639912981      6.84434932484178     -0.73038345371675
  N          -1.25195433812241      5.56432405124673     -1.08682097375455
  H          -0.45764989196012      5.24256711623304     -0.55822391791681
  H          -2.64566498865247      7.04212450086289     -1.40044513885636
  H          -2.16865137214428      6.82787415010086      0.29966797529424
  H          -1.06398560417698      7.63119028273794     -0.83973369146081
  C          -1.30871171010996      1.77856377005295     -4.12968288101374
  O          -0.33207496732384      1.09387384610981     -3.85253414774196
  C          -2.24523751354332      1.47202234529260     -5.26481154701086
  H          -2.26365073664037      2.30007088080805     -5.96891900575231
  H          -1.91064956265285      0.57267431812057     -5.77283062295581
  H          -3.25171705703328      1.32035913188563     -4.88284547933152
