47
Coordinates from ORCA-job /home/esp/scriptDevelopment/drFrankenstein/11_PCY_CHARMM/04_torsion_scanning/torsion_NH1-CT1-CG321-CG2R61/scans_PCY_conformer_34/PCY_conformer_34_backwards/orca_scan E -79.896376587290
  H          -2.97548348241068     -2.96940960794018      2.22352818867851
  H          -0.14392007447552     -4.08524832448826      0.91007741888954
  H          -3.30007538459370      1.28167384987360      1.37105179822681
  H           0.58241559288030      3.38499445713901     -1.02220596112914
  H          -2.19201328003607     -2.94331795599290      0.62109708153621
  H          -2.22995955270244      3.03560021442674      0.00196961755334
  H          -0.47786315465501     -1.56771287439086     -0.09821863424952
  H           0.52129718440655      2.29775697018365     -2.41576210526743
  H           2.72097916885358     -2.71176070001127      3.76638281909746
  H           0.56123316371260      0.15618595410278     -1.45572212845798
  H           1.01198087934459     -1.18440263312249      4.72050991167560
  H          -2.68118732559330      3.82691552826465     -3.48181460802179
  H           2.10732632567989     -4.19639641055598      1.88558784883655
  N          -1.99073150522387      3.12218706551274     -3.20425876994235
  C          -1.09227261984390      3.65480492507489     -2.32750294938388
  C          -1.36148121403525      5.05613418413862     -2.06455799595762
  C          -0.08336927970526      2.79685340933549     -1.65307399102899
  O          -2.29580797839839      5.62557864501384     -2.67170644966951
  C          -0.74943723159907      1.71981038635582     -0.82217248998144
  C          -1.84460543033458      2.02659234948625     -0.02096880690138
  C          -2.45134932911272      1.05474788970036      0.74480898295564
  C          -1.97274163768116     -0.25496190354322      0.72817041109958
  C          -0.87606371421280     -0.56757465627534     -0.06409843957499
  C          -0.27848929756984      0.41771313826578     -0.83161867314953
  O          -2.65503963646504     -1.13600814081710      1.52433562270110
  C          -2.20975436467674     -2.47970880463805      1.61372400737722
  C          -0.85949841326590     -2.61059807682871      2.27349050523291
  C           0.10669813556437     -3.46368080231801      1.75586901259896
  C           1.37856990797756     -3.51902949248317      2.30061356343777
  C           1.72451977097058     -2.68967413183549      3.35711854517718
  C           0.78138200581762     -1.83355664604321      3.89012807331449
  C          -0.50984743787921     -1.81912315657481      3.37004933211987
  N          -1.46544068814400     -0.98137205470919      4.02346003140829
  O          -2.57969925417119     -1.42710890925177      4.24701559923141
  O          -1.09716884008321      0.12949905783846      4.38051064369316
  C          -0.77716737672907      7.10159614024800     -0.84613020440233
  N          -0.58398018374891      5.71166287993076     -1.17703206924867
  H           0.13458298023132      5.21539025460529     -0.67632155179472
  H          -1.60561380983061      7.47571020553568     -1.44523694798030
  H          -1.01595418586216      7.21228238661797      0.21208327123682
  H           0.12258883489240      7.67338368333070     -1.07424076712461
  C          -2.02969731439311      1.89574876557453     -3.80953194829431
  O          -1.18095604307901      1.03250042223337     -3.63509994906423
  C          -3.22050146472428      1.73075477913881     -4.71267412777926
  H          -3.20957451169716      2.49035235105524     -5.49021487385377
  H          -3.19091008192874      0.74559117801131     -5.16788083410830
  H          -4.13691885146939      1.83662421082561     -4.13750700971227
