47
Coordinates from ORCA-job /home/esp/scriptDevelopment/drFrankenstein/11_PCY_CHARMM/04_torsion_scanning/torsion_NH1-CT1-CG321-CG2R61/scans_PCY_conformer_34/PCY_conformer_34_backwards/orca_scan E -79.896874471650
  H          -2.33103313812995     -0.60863727099132      4.50673293960738
  H          -3.07939035046001     -2.61647250599079      1.95659702900236
  H          -0.00765186021234      2.70310370907009      2.92273553202071
  H           0.56437115291504      3.77358271273736     -1.57974961167507
  H          -3.10417629880520     -0.46303204267507      2.90597311362184
  H           0.63494714823293      3.72161339666875      0.76933113872772
  H          -2.09198532032726     -0.38409997551912      0.83303426321497
  H           0.73584242681590      2.16052050159818     -2.23748338076099
  H           0.58791101150026     -4.75255255088904      1.47180809189304
  H          -1.45984897849632      0.62471706893497     -1.28845876376395
  H           1.73635747154796     -3.06824104886967      2.88777918201612
  H          -1.77413566602749      3.28132320441844     -4.53284463927721
  H          -1.84104291576904     -4.53586942809069      1.05668923467086
  N          -0.90764439171313      3.02028208337773     -4.04839831229651
  C          -1.09104125410869      3.08705743730677     -2.69937746380982
  C          -2.42340813069967      3.56777877264304     -2.36967505958435
  C           0.02543735530310      2.83308915346538     -1.74757078002663
  O          -3.26012353762090      3.72382748555354     -3.28598525063759
  C          -0.38357322018306      2.25335599288893     -0.42012516305399
  C           0.02858016819941      2.82857302477563      0.77913242656328
  C          -0.32526640939018      2.26766578252030      1.98858127019768
  C          -1.10119151210960      1.10938634117504      2.03045189492965
  C          -1.50747804838452      0.52026972293910      0.83834575830818
  C          -1.14457151642376      1.09219143553390     -0.36799729011899
  O          -1.39655844054132      0.65035744954745      3.28353038231647
  C          -2.14568190778811     -0.54531847343791      3.43011402276520
  C          -1.39924164838477     -1.76914935939031      2.96001367054261
  C          -2.02750373975379     -2.72501564635494      2.17221594876982
  C          -1.32714388879846     -3.80339742534842      1.65801250967448
  C           0.03416784770422     -3.92911916445913      1.89162164501510
  C           0.68142503340857     -2.99359552341332      2.67394818993480
  C          -0.03826405529307     -1.93862152644365      3.22903482268539
  N           0.66899827670626     -1.05997165583891      4.10521262807312
  O           0.12216441889316     -0.68792477914515      5.13227492682653
  O           1.81957117215126     -0.76398282242068      3.80754759737102
  C          -4.00010541769538      4.31161768657752     -0.64875892427321
  N          -2.69926986006189      3.87058629434176     -1.08586373873953
  H          -2.00142022947739      3.69391441903797     -0.37897973378596
  H          -4.62799365451706      4.43019127858840     -1.53010148129891
  H          -4.44690318954958      3.57459047268274      0.01984094052841
  H          -3.91754818880426      5.26526088122814     -0.12809171315879
  C           0.15255476661925      2.60571204612766     -4.80621223332939
  O           1.21985540388432      2.23230938305634     -4.33166630171352
  C          -0.12827999313262      2.66580017726422     -6.28133753172400
  H          -0.37274634175795      3.68468901938659     -6.57110610327746
  H           0.75009282750521      2.33477250520575     -6.82693991328667
  H          -0.97105337696994      2.02486176062640     -6.52780576968406
