47
Coordinates from ORCA-job /home/esp/scriptDevelopment/drFrankenstein/11_PCY_CHARMM/04_torsion_scanning/torsion_NH1-CT1-CG321-CG2R61/scans_PCY_conformer_34/PCY_conformer_34_backwards/orca_scan E -79.890586469500
  H          -2.60178513846587     -3.50401166497311      1.55597874106252
  H           0.27969549381138     -3.43962890704244     -0.08706587893349
  H          -3.96945550703221      0.58667136061670      2.08141857508774
  H          -2.22223417399329      4.35764931491373      0.01984763091811
  H          -1.98511302647584     -2.78477734602973      0.04452354322225
  H          -3.49087551253769      2.86903315159908      1.28264926283212
  H          -0.66146009139637     -0.89266222433648     -0.17689476835411
  H          -0.50184627012302      3.94833938073409      0.04400760727465
  H           3.01580465826909     -2.44811127996457      3.04076259484171
  H          -0.18067634504258      1.35981583024376     -0.94872706758397
  H           1.10583322140915     -1.76003930846168      4.46951568529612
  H          -1.33509969811304      3.07811744319933     -3.67934811741543
  H           2.57774063252667     -3.33537471438243      0.77368325116239
  N          -1.77079450790465      2.88373897132576     -2.77067457170239
  C          -1.38489608408576      3.82734077367990     -1.86278358252076
  C          -0.63227212096777      4.90017296385388     -2.49126869124600
  C          -1.47126076848748      3.66722461372084     -0.38083418448896
  O          -0.41982082527877      4.86944394256069     -3.72299389312815
  C          -1.80552717547079      2.27874555924267      0.09518235925032
  C          -2.86538684058725      2.04954690737773      0.96380498443877
  C          -3.14527793738601      0.77716210568219      1.41175156549255
  C          -2.36744355999271     -0.30384587434725      1.00041275932621
  C          -1.29348582076590     -0.08326296215618      0.14864080409939
  C          -1.02115664766830      1.20108878474862     -0.28909315434474
  O          -2.74717915139441     -1.52185759434142      1.50013505123511
  C          -2.01600582117078     -2.68084577541069      1.13487365137328
  C          -0.61739132941012     -2.70001957139568      1.70001203000233
  C           0.46226963215031     -3.08719204829671      0.91645775003491
  C           1.75835425259964     -3.02015195188825      1.39932382497066
  C           2.00671598130466     -2.52573729123630      2.67115580213053
  C           0.95027188822141     -2.13611212971977      3.47028072251541
  C          -0.35384454747813     -2.25287097182003      2.99695527124709
  N          -1.40710163835724     -1.92422700657963      3.90471383314481
  O          -2.38050656855732     -2.65862019072494      3.96410481524231
  O          -1.25181163099303     -0.94759607094672      4.62572223557111
  C           0.53433756421412      7.04112889256141     -2.23544945539220
  N          -0.18773923858215      5.90820737302237     -1.71014075386203
  H          -0.44870587252379      5.93768698329722     -0.73843674513091
  H           0.71150374895918      6.86211041052120     -3.29447972970994
  H          -0.04560708517244      7.95728177135510     -2.11778690527386
  H           1.48811734584777      7.14965971453080     -1.71948008985368
  C          -2.82500908761229      2.00402770837678     -2.75767036251741
  O          -3.65587051224344      1.96813629480766     -1.86370321760481
  C          -2.84577122665918      1.11047856512903     -3.96643219671073
  H          -1.90419563556242      0.57413764632889     -4.04702471271390
  H          -3.66406916695872      0.40324137377539     -3.87334475820293
  H          -2.98496785486253      1.70475704684909     -4.86625151508191
