47
Coordinates from ORCA-job /home/esp/scriptDevelopment/drFrankenstein/11_PCY_CHARMM/04_torsion_scanning/torsion_NH1-CT1-CG321-CG2R61/scans_PCY_conformer_34/PCY_conformer_34_backwards/orca_scan E -79.895820177740
  H          -2.30350312829487     -0.51866736980500      4.56936708527619
  H          -3.10234348747970     -2.61746279511572      2.10996361686504
  H           0.02550968979822      2.70191643818705      2.81775974126689
  H           0.69230407655824      3.47558123031238     -1.73098087425725
  H          -3.10261979803111     -0.43477811301951      2.97694787870351
  H           0.65583202571834      3.61926175265575      0.61474071548552
  H          -2.12662620354854     -0.44098070093673      0.88615940214784
  H           0.58050945843620      1.85902508985175     -2.37622294920599
  H           0.54261171377974     -4.79653117728721      1.65010388815023
  H          -1.50831538279672      0.46836948520234     -1.28384536953408
  H           1.72306951006952     -3.06940338981598      2.98592761384837
  H          -1.73567725059606      3.49154860434490     -4.57011176078934
  H          -1.89125133852615     -4.57779964753085      1.26388627579775
  N          -0.89003244554154      3.13989042957956     -4.10618685912751
  C          -1.09822794182385      3.05387058253449     -2.76103690077908
  C          -2.41812719101370      3.55155135704971     -2.40545651765679
  C           0.00430468188039      2.62944718146048     -1.85355055099608
  O          -3.22309676791150      3.84019500550094     -3.31871323146302
  C          -0.39946004831968      2.11788428811630     -0.49875216511426
  C           0.03642341635944      2.73699085238783      0.67017312513044
  C          -0.31074488307927      2.23311516546054      1.90652030765879
  C          -1.10136348134173      1.08823983745588      2.00686824376423
  C          -1.53083828375717      0.45499662850684      0.84567495081427
  C          -1.17526923684754      0.96999448752968     -0.38820245909062
  O          -1.38567809889145      0.68635857140027      3.28132879627134
  C          -2.13585324805298     -0.49968898739058      3.48821827196909
  C          -1.40180190990568     -1.74463114371289      3.05524790476651
  C          -2.04793864373255     -2.72513931523420      2.31346326484662
  C          -1.36310626697347     -3.82711790480940      1.82931648012915
  C           0.00082206852777     -3.95394036629569      2.04688408832932
  C           0.66572802347123     -2.99486210187575      2.78420098580213
  C          -0.03766473983017     -1.91391918221445      3.31040596823848
  N           0.68985456826066     -1.01085644630610      4.14260235901835
  O           0.15344637456544     -0.57500910754364      5.15066502161666
  O           1.84771593549768     -0.75612220110215      3.83150666126783
  C          -4.01209526873171      4.18543584535057     -0.65768190568803
  N          -2.72208728629936      3.72314479020418     -1.10455774862596
  H          -2.04199948465941      3.47070257430505     -0.40333715206445
  H          -4.61372212237133      4.40531064688503     -1.53786273874018
  H          -4.50465617196714      3.41570635415274     -0.06246427639727
  H          -3.90122543554284      5.08770306982169     -0.05665961955008
  C           0.16993878553068      2.77287339173686     -4.88826036422192
  O           1.20977117022417      2.30192840528547     -4.44132618435177
  C          -0.07508068622697      3.01607624664811     -6.35098328668666
  H          -0.28385608205766      4.06885754604555     -6.52303215880387
  H           0.80537459658337      2.72406287477024     -6.91515656413416
  H          -0.92995378110911      2.43487121725364     -6.68752100988608
