47
Coordinates from ORCA-job /home/esp/scriptDevelopment/drFrankenstein/11_PCY_CHARMM/04_torsion_scanning/torsion_NH1-CT1-CG321-CG2R61/scans_PCY_conformer_34/PCY_conformer_34_backwards/orca_scan E -79.898469303130
  H          -2.76504643029184     -1.24906159621586      3.90915969822181
  H          -2.51795752971860     -3.13736000417563      1.17872394823790
  H          -0.89334298196138      2.57342087281162      3.03246964974090
  H           0.44231725896785      4.09536300808785     -1.19458391874319
  H          -3.19845147854513     -1.11770854265421      2.18394278650642
  H          -0.02442348711880      3.87519406802825      1.13071160362700
  H          -1.82589407530440     -0.65259683393323      0.39358141984069
  H           0.82116536363562      2.57021983741622     -2.01474706063408
  H           1.54084575288967     -4.44527879997103      1.43053685994620
  H          -0.98245065552919      0.64106168999430     -1.48583944074629
  H           1.98292792461854     -2.69051983345655      3.12998237178228
  H          -1.97433129719073      3.05234903837596     -4.21720176178777
  H          -0.73769245393763     -4.68535318379140      0.49872824940869
  N          -1.12876710748648      2.75416906799218     -3.71831558003784
  C          -1.06901412214383      3.36264492277005     -2.50255607314351
  C          -2.22107478289107      4.21181597462837     -2.26030487705765
  C           0.03051089549915      3.13872035538309     -1.52325194273280
  O          -3.09018763264562      4.34629446036899     -3.14861946883205
  C          -0.47103067982573      2.35945968877595     -0.32645026472516
  C          -0.44339271443198      2.89474079200575      0.95666246947727
  C          -0.91746877006065      2.17187673251907      2.03166984768906
  C          -1.43466642988923      0.89033005932261      1.84707002756058
  C          -1.45351828502592      0.34246186636573      0.56981352927532
  C          -0.97660841804304      1.07977168528648     -0.49944815215110
  O          -1.88448771244965      0.27365337746225      2.98169223326414
  C          -2.37601872413835     -1.05470100180650      2.90494452975583
  C          -1.30398636223279     -2.05899988924760      2.56098578944535
  C          -1.53543469477224     -3.05085908360970      1.61674261864998
  C          -0.52894099169389     -3.91867739958558      1.22730065596679
  C           0.74895946453427     -3.78837133200055      1.75028789131441
  C           1.00431180867304     -2.81145140903069      2.69191046570394
  C          -0.02405447233441     -1.97375249763781      3.11537957860545
  N           0.28171675103168     -1.04722566015872      4.15909164000763
  O          -0.52888084376582     -0.88549793030899      5.05699538791226
  O           1.37490812706118     -0.49851407572370      4.12941267478914
  C          -3.41194905654685      5.67837411958512     -0.70071570820799
  N          -2.29012430396382      4.85409448152574     -1.07581063390508
  H          -1.62299339991955      4.62565046099243     -0.35626698706628
  H          -4.06072934856514      5.77572594522474     -1.56946292135079
  H          -3.96976625219948      5.22067718070228      0.11749405881157
  H          -3.06476982966244      6.66410345327894     -0.39227213086040
  C          -0.29845255296040      1.86177779026505     -4.33992828911851
  O           0.72827989111840      1.42376244629502     -3.83280862527555
  C          -0.78547511223655      1.46999789781154     -5.70673638894809
  H          -0.84956942461967      2.34830120410123     -6.34418980950465
  H          -0.09272801270408      0.75662792534810     -6.14268623128629
  H          -1.77326281122291      1.02128867058283     -5.63706371942545
