47
Coordinates from ORCA-job /home/esp/scriptDevelopment/drFrankenstein/11_PCY_CHARMM/04_torsion_scanning/torsion_NH1-CT1-CG321-CG2R61/scans_PCY_conformer_34/PCY_conformer_34_backwards/orca_scan E -79.895718658930
  H          -1.79677175857234     -3.68995353490492      1.30684552646029
  H           1.17953551179776     -2.86387109569090      0.07080530593963
  H          -4.14642662448407     -0.04960318334639      1.65340296815485
  H          -3.16874323919812      4.02102446404081     -0.36322521930513
  H          -1.17175005092638     -2.80674284901744     -0.11108360938841
  H          -4.11365445372955      2.31317776302010      0.93971896835792
  H          -0.34659299291027     -0.65405068064325     -0.20052758307952
  H          -1.50460063755369      4.17352236156774      0.21513409236379
  H           3.13648840931955     -1.34002370010235      3.54925646892931
  H          -0.31637741299576      1.67291882916916     -0.89756978920466
  H           0.94169637992442     -1.19788705149035      4.70048798947329
  H          -1.92189130852773      3.22619384399534     -3.76415149862462
  H           3.24147321452621     -2.22524202378696      1.24158026566778
  N          -2.43153076880635      3.15592681641791     -2.87737266224067
  C          -1.71853973216532      3.73791256713296     -1.87101455499181
  C          -0.47187425643903      4.30461485531912     -2.35233129934204
  C          -2.15700063789125      3.61594587343827     -0.45601973442059
  O          -0.20969838704368      4.25964513355244     -3.57481909951024
  C          -2.20661806866987      2.16416214709802     -0.02575340766348
  C          -3.28471574433017      1.66764115067050      0.69635399259441
  C          -3.31480840617654      0.34800935010069      1.09279225400652
  C          -2.26386348813990     -0.51154566569167      0.77369687857935
  C          -1.18023737402511     -0.02221266160471      0.05629812068371
  C          -1.16291932210132      1.30557685540977     -0.33602710475792
  O          -2.40786106304855     -1.79980771389078      1.21440544153481
  C          -1.37559257551190     -2.74002646336582      0.96332611639828
  C          -0.10527760939942     -2.43383672442871      1.71714539594240
  C           1.13166838874911     -2.51333708444509      1.09035485705203
  C           2.29327730880107     -2.14515547122604      1.74825159653480
  C           2.23769325003503     -1.65113443630004      3.04302667766764
  C           1.02025946343352     -1.56417167412244      3.68862418479047
  C          -0.13804302196963     -1.98206149330601      3.03885326630699
  N          -1.35170107654741     -1.95463764243912      3.79233937119745
  O          -2.11684535075872     -2.90221414462515      3.70799398840501
  O          -1.53790314322198     -0.99920406068007      4.53416704566674
  C           1.62480231519861      5.46981225046664     -1.84565315093119
  N           0.37236622312993      4.86707006540785     -1.46228128105413
  H           0.13240902246202      4.88497378130230     -0.48482290173154
  H           1.74178905773205      5.34227605971070     -2.92046566507141
  H           1.62526622477792      6.53377222673164     -1.60648292012496
  H           2.45213548913402      4.98375390066336     -1.32858974035251
  C          -3.70166150241795      2.64686485489668     -2.89308708255562
  O          -4.43865924042333      2.64800148550284     -1.91667707913201
  C          -4.08950667805425      2.09425557926274     -4.23661030438026
  H          -3.40001375826066      1.30507865951893     -4.52502766432448
  H          -5.09700521929789      1.69348066102612     -4.18123798168147
  H          -4.05317535542305      2.87910781968556     -4.98799943883866
