47
Coordinates from ORCA-job /home/esp/scriptDevelopment/drFrankenstein/11_PCY_CHARMM/04_torsion_scanning/torsion_NH1-CT1-CG321-CG2R61/scans_PCY_conformer_34/PCY_conformer_34_backwards/orca_scan E -79.889358563820
  H          -2.69697806166915     -3.46340312675229      1.60608600814072
  H           0.17855829046356     -3.52698242448668     -0.05009878026771
  H          -3.89508999060269      0.68274072634184      2.10627458564418
  H          -1.94504624872120      4.37290122974801      0.08768256747424
  H          -2.06001627200483     -2.78029853654444      0.08631854952959
  H          -3.32964708210156      2.93767505761564      1.28600490385845
  H          -0.66547648255909     -0.94754987940307     -0.16126680764908
  H          -0.26667943400486      3.84095851524103     -0.07914799618809
  H           2.96494995210404     -2.61660345150673      3.05813705662482
  H          -0.10100647313514      1.27742392064561     -0.95777849806449
  H           1.08948429744260     -1.84322964034462      4.48897697923845
  H          -1.33737203613873      3.14729215167180     -3.71695453876581
  H           2.48283166787934     -3.50531447178019      0.80058403313858
  N          -1.70773802947684      2.89018060074576     -2.79431577255857
  C          -1.34639966895219      3.83863583235189     -1.88029935180860
  C          -0.72457233231918      4.98655673247415     -2.52009570884646
  C          -1.29513384955576      3.63829952188481     -0.40031053689789
  O          -0.61378361406863      5.01761794083094     -3.76525979741742
  C          -1.67851499628303      2.26949171229877      0.09147793331786
  C          -2.74016089292976      2.09085648269179      0.96952907481019
  C          -3.06825346457599      0.83461598478471      1.43000743523803
  C          -2.33708895670649     -0.27980006561238      1.02298486974565
  C          -1.26114501637691     -0.11017870635518      0.16210043548087
  C          -0.94074310573058      1.15813478753154     -0.28894948968527
  O          -2.76117118720689     -1.47709023673030      1.53723925234564
  C          -2.08055385119266     -2.66770483381377      1.17601322292203
  C          -0.68095746560106     -2.73871305210903      1.73454277668916
  C           0.37925005553224     -3.17389261783913      0.94972464081304
  C           1.67905415996434     -3.15322428167621      1.42681664556147
  C           1.95197945982350     -2.65823200365222      2.69336998602060
  C           0.91499700690373     -2.22138723799219      3.49364963133712
  C          -0.39462568374749     -2.29169852084532      3.02661450112438
  N          -1.43097980522432     -1.91569613452759      3.93569395090059
  O          -2.42871532852598     -2.61521492660427      4.00865533525329
  O          -1.23772375286104     -0.93701491366654      4.64431858334319
  C           0.29781984141123      7.20037251607251     -2.26798171528197
  N          -0.28547912109908      5.99359037199766     -1.73462569789748
  H          -0.45705920536140      5.96401994402418     -0.74339227919543
  H           0.39583024550481      7.07611884757810     -3.34499249470035
  H          -0.33951724332897      8.06117029805726     -2.06172188384691
  H           1.28132272902285      7.36735747702192     -1.82937449555328
  C          -2.71014250952133      1.95039503477539     -2.77835891872974
  O          -3.51254715434007      1.83746339957681     -1.86564777229330
  C          -2.71316152172007      1.09455552309850     -4.01465099676077
  H          -1.74477413631696      0.61751942186311     -4.13819229259810
  H          -3.48626800863674      0.33801013197689     -3.92287611369624
  H          -2.91255572345554      1.70727489934141     -4.89048101984908
