47
Coordinates from ORCA-job /home/esp/scriptDevelopment/drFrankenstein/11_PCY_CHARMM/04_torsion_scanning/torsion_NH1-CT1-CG321-CG2R61/scans_PCY_conformer_34/PCY_conformer_34_backwards/orca_scan E -79.892449818140
  H          -2.66842017416933     -3.49588545750769      1.46814537338214
  H           0.52911096925398     -3.92446379873850      0.69786957926567
  H          -3.63325257808176      0.71480329959404      0.98474190796298
  H          -0.04677612130837      3.80884110262290     -0.31615837809836
  H          -1.59838143893842     -3.10071209824389      0.09594719820684
  H          -2.68509946906963      2.78528333106542      0.02922164640427
  H          -0.05783669242048     -1.38034400124315     -0.04481650974427
  H           0.68018858974255      2.88245061096332     -1.63811499084412
  H           2.45072879631050     -2.58223511369839      4.26996098506446
  H           0.86049265945481      0.64799208374574     -1.00612639231390
  H           0.32599266605230     -1.51991903552881      4.99261268785890
  H          -2.84422057357420      3.94878390540575     -3.12713780525210
  H           2.51942180957900     -3.82789905211341      2.13398180054055
  N          -2.20731384368646      3.23746276444320     -2.75291826690425
  C          -1.16554942177268      3.83492264075930     -2.10501899316755
  C          -1.17453214876435      5.27619132698609     -2.28737523546401
  C          -0.26686541230078      3.13028750981020     -1.14531233937746
  O          -2.08775010434340      5.81093611211856     -2.95341385018128
  C          -0.84511165115496      1.86197127354134     -0.57305944200770
  C          -2.11163669410449      1.87022955727630      0.00398609359249
  C          -2.64991576665832      0.72140789245574      0.54055853163899
  C          -1.92517255673176     -0.46971418937270      0.52227743929015
  C          -0.65013329488759     -0.48095314935181     -0.02578423823297
  C          -0.12444721628874      0.67960604782328     -0.56683843123387
  O          -2.56352575288722     -1.54963936038164      1.07332251941557
  C          -1.90193079434517     -2.80345859224697      1.10594624666241
  C          -0.71174905544959     -2.81867977611579      2.03280518819533
  C           0.48289626439782     -3.41322953697857      1.64714455038378
  C           1.60710980680338     -3.35037426088830      2.45312668018619
  C           1.57061115283768     -2.65494677002017      3.65269453033275
  C           0.39449166348227     -2.05696814173101      4.05927605832184
  C          -0.74581264681714     -2.16637824672293      3.26779695475958
  N          -1.95362510193356     -1.60793563527839      3.78754435405695
  O          -2.98857816260300     -2.24709433302725      3.68348352431589
  O          -1.87899250666436     -0.53283646109712      4.36778022492486
  C          -0.06582380828696      7.42612483527832     -1.88652016753246
  N          -0.17317206076767      5.99562602227460     -1.73635891609826
  H           0.58414881474415      5.52285711611086     -1.27156484173706
  H          -0.93417884650603      7.76919414697989     -2.44631233152619
  H          -0.05092389436825      7.90804680286087     -0.90884404192887
  H           0.84151890797229      7.68781558208418     -2.43164933607307
  C          -2.36770135556020      1.94874054856665     -3.19367176442285
  O          -1.49977615869330      1.09546003656255     -3.09248779291442
  C          -3.71289282302510      1.71431530427388     -3.82225981286307
  H          -3.84520984137880      2.36685003543640     -4.68161942328069
  H          -3.78380472357039      0.67884005614869     -4.14027066118804
  H          -4.49759940951816      1.92662706509835     -3.10056011237566
