47
Coordinates from ORCA-job /home/esp/scriptDevelopment/drFrankenstein/11_PCY_CHARMM/04_torsion_scanning/torsion_NH1-CT1-CG321-CG2R61/scans_PCY_conformer_34/PCY_conformer_34_backwards/orca_scan E -79.897728522870
  H          -3.02029402705468     -1.77167213797126      3.40708010093451
  H          -1.90544461160972     -3.56599707614154      0.83787095236636
  H          -1.70021087500846      2.32980083796626      2.82573811235232
  H           0.49172365809543      3.98051464372868     -1.03054497076693
  H          -3.11884661029025     -1.70222161042938      1.62751758061155
  H          -0.69399260622943      3.77615588941306      1.11658245839563
  H          -1.51266189686088     -0.98077209505062      0.13443796318909
  H           0.76772161823796      2.52572707757991     -2.00922726967651
  H           2.19554839468987     -4.10547940813547      1.90483078659800
  H          -0.52663646360081      0.45365831625624     -1.56089716622986
  H           1.97302280156553     -2.30747450524053      3.60221307751557
  H          -2.22448544560741      3.12611150716830     -3.95359068159332
  H           0.22382655570315     -4.75685995655464      0.56133041685294
  N          -1.38650887077865      2.73914859827776     -3.50463000548846
  C          -1.06773902443381      3.48162580640798     -2.40776996833099
  C          -2.00250301509248      4.57645698097408     -2.21420002287868
  C           0.01857875401679      3.09940704124112     -1.46222953001202
  O          -2.92668206517114      4.75109530866800     -3.03833282748040
  C          -0.56360538458787      2.22435737199048     -0.36812578125041
  C          -0.89289836298155      2.74239702833050      0.87921950009034
  C          -1.45053060831255      1.93946336337118      1.85164791141041
  C          -1.69667865211245      0.59071596489303      1.59826672392131
  C          -1.35836528993409      0.06117517756401      0.35922344584980
  C          -0.80099494694510      0.87931827894897     -0.60792224997184
  O          -2.25926832531972     -0.10540948121434      2.63306917647198
  C          -2.48061802590645     -1.49980927868589      2.49469047420913
  C          -1.19968809662579     -2.29037692680725      2.39404057269088
  C          -1.05940195787877     -3.30306879434824      1.45405312343302
  C           0.14415375586490     -3.96869116157828      1.29247681678160
  C           1.25067424829478     -3.60749498837087      2.04655574847235
  C           1.13653463724407     -2.60487828862654      2.98899598540615
  C          -0.08948232502197     -1.97389793870272      3.18104375633055
  N          -0.16730681007331     -1.01161242576719      4.23449478478553
  O          -1.14420255505510     -1.02016499439368      4.96592599537753
  O           0.78378728150400     -0.25751347423445      4.38637894863752
  C          -2.70877410133259      6.48107514387205     -0.84090658592292
  N          -1.82109746255794      5.38986441585895     -1.15486163722928
  H          -1.08828122383292      5.18351664847905     -0.49673797737266
  H          -3.45137667372648      6.54656448834377     -1.63409462827678
  H          -3.21098162442488      6.30326965557017      0.11089631711986
  H          -2.15191234497548      7.41645336608300     -0.78577553085133
  C          -0.75483258034009      1.69629671921672     -4.12390537128720
  O           0.27916872246113      1.18505940410413     -3.70865703267996
  C          -1.46866956998216      1.23835988147472     -5.36468290531613
  H          -1.51229772756737      2.04825750206879     -6.08871394890261
  H          -0.93397456226582      0.39756416047488     -5.79615272806787
  H          -2.48449570417936      0.93798396392705     -5.12059191021771
