47
Coordinates from ORCA-job /home/esp/scriptDevelopment/drFrankenstein/11_PCY_CHARMM/04_torsion_scanning/torsion_NH1-CT1-CG321-CG2R61/scans_PCY_conformer_4/PCY_conformer_4_backwards/orca_scan E -79.894140960300
  H          -3.22463416342992     -2.11079469351347      0.10138615101391
  H           0.10171837074355     -2.41742126598225      1.38883261753133
  H           0.39157511620371     -0.83497433865480     -1.96143595253237
  H          -0.76041335788447      3.96164876950662      0.46061070439950
  H          -2.43151058955596     -3.65167656616877     -0.22158226606551
  H           0.91722897319266      1.57737053931729     -1.90836523051980
  H          -2.40381248734609     -0.28121389268842      1.21967702692477
  H           0.90732568220484      3.59098835035937      0.00129880842185
  H          -0.99892402964945     -3.15063319837610      5.45181234792909
  H          -1.90761239115482      2.09353423695446      1.24949843603967
  H          -3.34094907446700     -3.51378552650248      4.72494477127088
  H          -0.63031276476052      4.19236821465319     -3.54243932128564
  H           0.72608130349477     -2.61988337601502      3.75195166214600
  N          -0.90720804646881      3.66357737236648     -2.70693210627385
  C          -0.30901192320235      4.19213205044100     -1.60448412851222
  C           0.38437898113771      5.43688503245848     -1.91438752334649
  C          -0.13866138951007      3.48195120794542     -0.30376871344819
  O           0.37156916689248      5.87503144307523     -3.08355218149320
  C          -0.46975462572079      2.01388911835016     -0.33292564424935
  C           0.18406261778769      1.17118069588620     -1.22732127288582
  C          -0.10012119822157     -0.17620538686282     -1.26352204033571
  C          -1.04430311093090     -0.71901950751009     -0.39267078104921
  C          -1.67937624955985      0.10928064229591      0.52260709435882
  C          -1.38908834752771      1.46253272507362      0.54389969271428
  O          -1.25273983865459     -2.06798520716405     -0.51581037758008
  C          -2.28703028066823     -2.66561409584623      0.23282979512242
  C          -1.96072206857956     -2.83523606093591      1.69473334353144
  C          -0.65148831282504     -2.65251375581395      2.12424981848737
  C          -0.30061273985623     -2.76570067019762      3.45751517114925
  C          -1.26440419690990     -3.06503942367793      4.41113409025427
  C          -2.56786216428798     -3.26424599386793      4.01493003963384
  C          -2.92367785465840     -3.16139071117516      2.66568239352200
  N          -4.27884512452784     -3.40767310603845      2.34194775854062
  O          -5.10285757594994     -3.45152192313259      3.25657275000907
  O          -4.60258995946561     -3.57850066317113      1.16586192092963
  C           1.69894264279100      7.33477064653393     -1.09331237803693
  N           1.01534628669519      6.07773811562947     -0.90965999205738
  H           0.93472373549681      5.73160342172687      0.03234461307429
  H           2.73284227568597      7.25084053555762     -0.75944934375633
  H           1.67777403778546      7.57627407654605     -2.15448425054175
  H           1.20267931779337      8.12857642272084     -0.53401431869131
  C          -1.98918527843435      2.82194504955133     -2.82889385806354
  O          -2.65341892228144      2.45075973695315     -1.87560785470642
  C          -2.26222085892882      2.43677080973820     -4.25435419572859
  H          -3.10528712680420      1.75354553036005     -4.28520420665051
  H          -2.49216532726892      3.32035310071082     -4.84460566889953
  H          -1.38645712841368      1.95346151858324     -4.67957740029462
