47
Coordinates from ORCA-job /home/esp/scriptDevelopment/drFrankenstein/11_PCY_CHARMM/04_torsion_scanning/torsion_NH1-CT1-CG321-CG2R61/scans_PCY_conformer_4/PCY_conformer_4_backwards/orca_scan E -79.899923873770
  H          -2.09741581953992     -2.55711238392116     -0.29276527095534
  H           0.33711366880854     -1.71512923478746      2.20062704731474
  H           1.47759273329720     -0.14322033885868     -0.95027583874081
  H          -1.99131025229926      3.99347573923826      0.06566846768097
  H          -0.81015291166739     -3.73599248668646     -0.04992391904513
  H           1.18397008972939      2.30422238927607     -1.03332505754337
  H          -2.42126573673837     -0.54160083386182      0.74990286319709
  H          -0.28801597967422      4.24590851364213      0.47916656399680
  H          -2.05652198566718     -2.71529971682250      5.59544375386429
  H          -2.71643706994202      1.86818189914550      0.64518944493252
  H          -3.67430485657904     -3.84006253674156      4.09138843167812
  H          -1.25374683244516      4.31929588734903     -3.51219316829033
  H          -0.03010779844943     -1.66759335394265      4.62488622897880
  N          -1.62608345063586      3.99934590233907     -2.61152050300629
  C          -0.74314015366668      4.26409652955662     -1.61196468326655
  C           0.45453894948977      4.92426082178490     -2.11144398248354
  C          -0.96398875208008      3.76852673084276     -0.22888911896801
  O           0.52072270730330      5.24011356362579     -3.31821157545708
  C          -0.78651793278012      2.26277086784559     -0.18428065256479
  C           0.39462038500506      1.68291015883285     -0.63836337290330
  C           0.56789160699446      0.31636190152764     -0.59879407758249
  C          -0.44264841224433     -0.50806941740206     -0.10317343742537
  C          -1.62263936801575      0.06482781339212      0.35315485657974
  C          -1.78695876054751      1.43946547877160      0.30466008247573
  O          -0.16432453476678     -1.84834187891067     -0.10630013311997
  C          -1.17684186792507     -2.75484287485081      0.27028698244857
  C          -1.44530592072451     -2.78533923813570      1.75333286678241
  C          -0.54467197296879     -2.17487756673989      2.61826351434825
  C          -0.75303152888207     -2.14782496370617      3.98551738419225
  C          -1.88595983014974     -2.73587307553339      4.53181312597869
  C          -2.79067059724861     -3.35900373346928      3.70178982214122
  C          -2.57727074882115     -3.39713434814932      2.31958438376474
  N          -3.54295141317629     -4.08069255080666      1.54301120753927
  O          -4.61406169675864     -4.38280844815484      2.06995987575139
  O          -3.29238845120033     -4.36162568130478      0.37045801263865
  C           2.68835026887690      5.81516836656549     -1.63980816285038
  N           1.45771618954978      5.17497422929698     -1.24697060738499
  H           1.37348417048551      4.89000440801805     -0.28464519128810
  H           3.53516603585313      5.15345769790371     -1.45603076062437
  H           2.62637152444235      6.03735199488632     -2.70369019580113
  H           2.82853716642718      6.74232389563286     -1.08382482253989
  C          -2.90622126635770      3.50959235067006     -2.57632657603325
  O          -3.48006192955770      3.20375284923287     -1.54109518086566
  C          -3.52100747601967      3.39635455827926     -3.94234991231897
  H          -4.52983937533654      3.00559138545525     -3.85063711906033
  H          -3.55281111480495      4.37183854245437     -4.42119195307283
  H          -2.92840969859148      2.72625018722063     -4.56014964309197
