47
Coordinates from ORCA-job /home/esp/scriptDevelopment/drFrankenstein/11_PCY_CHARMM/04_torsion_scanning/torsion_NH1-CT1-CG321-CG2R61/scans_PCY_conformer_4/PCY_conformer_4_backwards/orca_scan E -79.900783300650
  H           0.74576323221222     -2.35326861769736      0.45121975707949
  H          -0.84100949060939     -0.76935930844420      3.24022996469389
  H           1.14738965637427      1.84442252042697      1.61367586334293
  H          -2.96859412871824      2.51547059281419     -1.97588912381779
  H           1.63037496408547     -2.46770889665178      1.96995646682219
  H          -0.21461342012278      3.49561671231354      0.37749982246208
  H          -1.23588663122517     -1.31185430868619     -0.00114622712969
  H          -2.99335462500437      3.52759483482533     -0.54148965801722
  H          -3.69446970802277     -3.85014592536534      4.01970598031781
  H          -2.55721876957630      0.31155663400577     -1.23263640883582
  H          -2.44175806586849     -5.36008317447436      2.50520191640089
  H          -1.28155723228939      5.93878263046261     -2.55532928219041
  H          -2.85927400443548     -1.54538077289973      4.39104065209005
  N          -1.93291743506209      5.38894037397177     -1.98291179623031
  C          -1.55152219975128      4.08520315201328     -1.96382993842598
  C          -0.37380195498624      3.85661985138734     -2.79150387856739
  C          -2.32697297898263      3.03366163775189     -1.25400297691028
  O           0.19213681487434      4.82992184814375     -3.33164370864168
  C          -1.47660140149966      2.02146735597945     -0.52966524981446
  C          -0.42939651311190      2.44158098841775      0.28819178057679
  C           0.33364756651504      1.52832343830806      0.98121339563686
  C           0.06281641446159      0.16192579409654      0.88415825798188
  C          -0.98772308964983     -0.26598732046218      0.08253968564251
  C          -1.74256858956364      0.66223536543387     -0.61686164928884
  O           0.87739958603497     -0.65254257314230      1.62041331130835
  C           0.73057008416811     -2.05050459339311      1.50549538386777
  C          -0.48790813612469     -2.59552632691679      2.20639292719539
  C          -1.19766641146995     -1.77356490684701      3.07377140929190
  C          -2.33729223756036     -2.21222415507974      3.72399762744360
  C          -2.80572436287141     -3.50302982128847      3.51924139653903
  C          -2.11660641307270     -4.34569294823135      2.67618348903650
  C          -0.95870993770893     -3.90803645830790      2.02390942776570
  N          -0.29913407442414     -4.84670484939053      1.19532044747596
  O          -0.87622741608243     -5.90056662099169      0.92471195758829
  O           0.82917741292547     -4.59578807434662      0.76996129090141
  C           1.21377410563577      2.24584599361671     -3.73013875135395
  N           0.03220734163515      2.58638335382674     -2.97785794627858
  H          -0.42614733586644      1.84577476427841     -2.46857754562274
  H           0.96682564585142      1.52567716072803     -4.50951205963272
  H           1.59796677361822      3.15748813944020     -4.18424728230602
  H           1.97412723360800      1.81943208451991     -3.07432449570995
  C          -2.94677855217881      6.05467186600989     -1.34399753001619
  O          -3.76668417866414      5.50130845765865     -0.62183840581684
  C          -2.94512266731477      7.52829520159709     -1.63136419114697
  H          -3.76744622343187      7.99816590971167     -1.10051445242413
  H          -2.00571024249176      7.97099339472633     -1.30970624921391
  H          -3.05878840425779      7.69858959615079     -2.69908340406939
