47
Coordinates from ORCA-job /home/esp/scriptDevelopment/drFrankenstein/11_PCY_CHARMM/04_torsion_scanning/torsion_NH1-CT1-CG321-CG2R61/scans_PCY_conformer_4/PCY_conformer_4_backwards/orca_scan E -79.891480653290
  H          -3.29155770389957     -2.01963794095709      0.18009697812450
  H           0.04095469286180     -2.55593357579747      1.37093787248556
  H           0.31358905011535     -1.05533873660820     -2.04453846575012
  H          -0.19293511705268      3.79432332995227      0.45909681691921
  H          -2.62802148554662     -3.62254894172142     -0.13276911311516
  H           1.00806914445442      1.31474480041986     -2.07123661682392
  H          -2.28971806576628     -0.24065275858404      1.24131132172725
  H           1.26334303269271      3.34635346908206     -0.44100660467551
  H          -0.97850251121252     -3.12860233924230      5.48094512986219
  H          -1.62137848813243      2.09216099061627      1.20018643610956
  H          -3.36401362125072     -3.32230817226969      4.83531300629379
  H          -0.71475817269341      4.33962375027236     -3.52521166458799
  H           0.72552037370322     -2.76326691448090      3.71741672889275
  N          -0.85385413198863      3.65934414568573     -2.76607640429367
  C          -0.26988334680332      4.13426385065638     -1.63106900165065
  C           0.21061547391573      5.50037502331317     -1.81994383622219
  C           0.16711421939679      3.31761748580499     -0.45866367272151
  O          -0.00556324053349      6.08259107821179     -2.90369603799466
  C          -0.26781968947446      1.87835950398796     -0.44336062487079
  C           0.28332468767992      0.97419473764948     -1.34654767630701
  C          -0.09635123848651     -0.34957232546740     -1.33977132885848
  C          -1.03639341155608     -0.80541868413462     -0.41652053567591
  C          -1.57048303283500      0.08364223652486      0.50584052679265
  C          -1.18295160725031      1.41222305784434      0.48536641311434
  O          -1.34301059399765     -2.13903864487730     -0.49705901140252
  C          -2.39493311999245     -2.64164606351469      0.29549756620784
  C          -2.03584199295981     -2.80793539872645      1.75004427724377
  C          -0.70307827736536     -2.71894715716555      2.13467518679286
  C          -0.31843602064619     -2.83452699799803      3.45832735359434
  C          -1.27061540616424     -3.04136497680796      4.44755930276987
  C          -2.59778991434730     -3.14605662479478      4.09649706706096
  C          -2.98875009575981     -3.04039331006949      2.75718281236415
  N          -4.36881559939017     -3.18633839552040      2.48114266627245
  O          -5.16354624377414     -3.14738418855570      3.42148112302892
  O          -4.74289587631208     -3.35473871081121      1.31984477465586
  C           1.35839592483355      7.44679329251475     -0.87234506900538
  N           0.87457783406696      6.08929804942264     -0.80586349928272
  H           0.99644098247391      5.60034601730250      0.06541023236793
  H           2.43294751284426      7.47202551655618     -0.69291770246221
  H           1.14733185406116      7.83030530018732     -1.86891616254682
  H           0.85484828928109      8.06982570306118     -0.13250532534506
  C          -1.83805654008085      2.71882530320498     -2.97763463731201
  O          -2.42236101718532      2.14188445853582     -2.07682639672758
  C          -2.12082715716112      2.50948687969324     -4.43821725472224
  H          -2.84636315627813      1.70967961544621     -4.55003390037520
  H          -2.52351874726073      3.42116938016895     -4.87317482739706
  H          -1.20505844922325      2.25017388198919     -4.96230822255441
