47
Coordinates from ORCA-job /home/esp/scriptDevelopment/drFrankenstein/11_PCY_CHARMM/04_torsion_scanning/torsion_NH1-CT1-CG321-CG2R61/scans_PCY_conformer_4/PCY_conformer_4_backwards/orca_scan E -79.901223773040
  H           0.82881085388206     -2.23996413825354      0.56635478935234
  H          -0.98883786020364     -0.72769326732123      3.25022576922905
  H           0.96834118447461      1.97510080629211      1.71654590177281
  H          -2.95446717396877      2.43317970508707     -2.11455440304180
  H           1.63248190981277     -2.30694693227105      2.13220434102686
  H          -0.39450755014739      3.55329452791991      0.39028342256225
  H          -1.17234379766084     -1.29850431354962     -0.00103374622284
  H          -3.09687128090171      3.47049807246366     -0.69844977671193
  H          -3.72143684105737     -3.94623712322441      3.89484279972473
  H          -2.49342213899020      0.25400263468743     -1.32069393687260
  H          -2.31132106817342     -5.39792265525722      2.46409711454357
  H          -1.19435553884883      5.91250212840354     -2.49708280366698
  H          -3.02648706895404     -1.59981898973509      4.29320937411600
  N          -1.86667078357477      5.36709260524323     -1.94530826415093
  C          -1.57842489882844      4.04335126856651     -2.03547734842310
  C          -0.42611758245702      3.79380725409312     -2.89065333066067
  C          -2.37893638647123      2.98529500575418     -1.36414715975004
  O           0.17591361141831      4.75768449126454     -3.40768379715141
  C          -1.53449279695143      2.01647713636024     -0.57212334365904
  C          -0.55559460971194      2.49004156837180      0.29795852743217
  C           0.20671543126012      1.61742018442194      1.04260366428067
  C           0.00462948557119      0.23956573803502      0.94323679458001
  C          -0.97742997779146     -0.24179011850041      0.08710566672955
  C          -1.73161177151380      0.64609392949750     -0.66337293835221
  O           0.81215623972818     -0.53187630700954      1.73216274403609
  C           0.74038129724148     -1.93574741213338      1.61656881326176
  C          -0.48660305720691     -2.53863888673959      2.25203802888113
  C          -1.28440317345221     -1.74962424411001      3.07226743677322
  C          -2.43484122791946     -2.24261326856223      3.66166260108712
  C          -2.82496602770757     -3.55675084350002      3.44159901417520
  C          -2.04807007759402     -4.36734519067343      2.64465316617930
  C          -0.87941026963592     -3.87439047538475      2.05395201950512
  N          -0.12807011427341     -4.78279059397008      1.27044692350191
  O          -0.63339977260429     -5.86757166642511      0.98113713715436
  O           1.00581970201013     -4.47517077046455      0.90210487996602
  C           1.07300178538586      2.14218567556887     -3.90158242341723
  N          -0.08030772104009      2.51221107218256     -3.12003999644434
  H          -0.55410170682616      1.77968890014762     -2.61378071660584
  H           0.78336396990365      1.45011162993393     -4.69163865113752
  H           1.48446505033267      3.04817322365768     -4.34299719731037
  H           1.82840650812207      1.67190865265283     -3.27044898456307
  C          -2.82746712597248      6.04958510769889     -1.24440672629507
  O          -3.67126559184694      5.50027877288060     -0.54714906941232
  C          -2.73269401584050      7.53666243488209     -1.42748934000044
  H          -3.51401295641306      8.01982982171508     -0.84881520923986
  H          -1.76138764103176      7.89365493800321     -1.09422551034510
  H          -2.85116742357186      7.78967991130000     -2.47814625643655
