47
Coordinates from ORCA-job /home/esp/scriptDevelopment/drFrankenstein/11_PCY_CHARMM/04_torsion_scanning/torsion_NH1-CT1-CG321-CG2R61/scans_PCY_conformer_4/PCY_conformer_4_backwards/orca_scan E -79.895347008720
  H          -3.14864639032239     -2.18215558822600      0.04965387274684
  H           0.14866441354700     -2.34820110442808      1.43914739149875
  H           0.47577246818994     -0.74824396479612     -1.89649451340445
  H          -1.03334611076766      4.00521360778504      0.40630327450368
  H          -2.27745777272139     -3.68646929576296     -0.24290256433957
  H           0.89249303741186      1.68439997959750     -1.83118493693624
  H          -2.44833804216390     -0.31591275843896      1.18638023824555
  H           0.69357007616132      3.70121580102118      0.16736373395469
  H          -1.04612775268370     -3.10834514002083      5.47054418546255
  H          -2.05921018702733      2.07867403978379      1.22635036210586
  H          -3.34908449524386     -3.56514172977566      4.67478992144855
  H          -0.64451970186123      4.16261068457605     -3.53915039611653
  H           0.70816849543332     -2.51746674778489      3.82118098643711
  N          -0.96753431630930      3.68873933181409     -2.68798357265997
  C          -0.34627089985668      4.21068626616294     -1.59565046997260
  C           0.45095982432045      5.38172298124976     -1.93865880703887
  C          -0.29902596107465      3.54374905072036     -0.26385329291444
  O           0.51212573720976      5.75745230326784     -3.12793011457189
  C          -0.56512154598727      2.06092522086588     -0.30470355052046
  C           0.15444775236855      1.24733697958137     -1.17493853799031
  C          -0.06872060723174     -0.11162465980295     -1.21750638506144
  C          -1.01688583568978     -0.69516909056122     -0.37797536243044
  C          -1.71871792466264      0.10544340338162      0.51316249116268
  C          -1.48949169915662      1.47019552529851      0.54095098297088
  O          -1.16207144230227     -2.05195688814914     -0.50526236771120
  C          -2.19178748123196     -2.69400573685343      0.21245398614419
  C          -1.90416894082845     -2.84563522457268      1.68443456779453
  C          -0.61681559581323     -2.60998036237284      2.15256173498418
  C          -0.30263941352208     -2.70427551915196      3.49642134143073
  C          -1.28274592880286     -3.03730300625318      4.42184106366773
  C          -2.56480163283154     -3.28867655623666      3.98731030968810
  C          -2.88285669925504     -3.20531646826321      2.62732308523794
  N          -4.21696792287721     -3.50532326840467      2.26398983363205
  O          -5.06638287386241     -3.57525013410988      3.15332924810441
  O          -4.49754326986867     -3.69525144025160      1.07976672345899
  C           1.87632710082745      7.21857491234282     -1.16599280910746
  N           1.09233763905743      6.02812579703234     -0.94406754492220
  H           0.94919343475367      5.74377915171304      0.01122391817486
  H           2.88883710069256      7.07613109657939     -0.78911017743316
  H           1.90998841062272      7.40310214634339     -2.23823138411905
  H           1.42335192627582      8.07618138428065     -0.66748963645020
  C          -2.08273416596787      2.89078446127537     -2.78768359993179
  O          -2.75365729252924      2.56532693289746     -1.82184069766110
  C          -2.38196262268264      2.48876719367654     -4.20316219741060
  H          -3.25424094226075      1.84261975775865     -4.21522399557307
  H          -2.57646286846714      3.36923746064088     -4.81055093454697
  H          -1.53090908100810      1.95868921457032     -4.62297540403085
