47
Coordinates from ORCA-job /home/esp/scriptDevelopment/drFrankenstein/11_PCY_CHARMM/04_torsion_scanning/torsion_NH1-CT1-CG321-CG2R61/scans_PCY_conformer_4/PCY_conformer_4_backwards/orca_scan E -79.899996048230
  H           0.69189328573329     -2.38347006926467      0.36695390372955
  H          -0.77045141012922     -0.83532904116369      3.23790707353896
  H           1.26366402731458      1.76334321165576      1.62330407680725
  H          -3.02976467653973      2.65601976212442     -1.70734645166548
  H           1.62501382540255     -2.56649065391523      1.84950532028118
  H          -0.08798515097685      3.48875971952905      0.47885534235537
  H          -1.27905726380766     -1.27283588561051      0.02187261866977
  H          -2.83161335186038      3.68739094396428     -0.30874071483502
  H          -3.66519886138158     -3.87198750220001      4.03707422936662
  H          -2.59295867016645      0.42325726031937     -1.11742306863451
  H          -2.49015757789283     -5.37471189688670      2.45468499120497
  H          -1.35335089823278      5.92181629268613     -2.68069000577430
  H          -2.76979780318451     -1.59374505972811      4.43196438871509
  N          -1.97223737589496      5.40667463049249     -2.04356712677892
  C          -1.53021855562856      4.12983415614139     -1.89332116547702
  C          -0.36101288409173      3.87238655805142     -2.72631266688152
  C          -2.27472717020617      3.13730433606229     -1.07355409497577
  O           0.16642589781436      4.82218928281888     -3.34264265911448
  C          -1.43014947084508      2.07909991280458     -0.41615146995805
  C          -0.34011172268335      2.44472911701230      0.37274246919414
  C           0.41777707117385      1.49015408182207      1.01346731308843
  C           0.09862004824698      0.13583066571112      0.89310722485094
  C          -0.99395622809441     -0.23785507755395      0.12116145525654
  C          -1.74451613410672      0.73167146428972     -0.52517243906939
  O           0.91166864176515     -0.72247757362000      1.57917490025140
  C           0.72154913568762     -2.11186186544186      1.42942113646758
  C          -0.48692689126248     -2.64571878411849      2.15578427988452
  C          -1.15293909054824     -1.82817192383847      3.06111124999191
  C          -2.28205815894680     -2.25686466964086      3.73593196359780
  C          -2.78396491357895     -3.53286096135106      3.51816422859770
  C          -2.13804201603666     -4.37145710432359      2.63773256021148
  C          -0.99039193527123     -3.94442305291732      1.96055743919368
  N          -0.37547595847120     -4.87911397533652      1.09453450798965
  O          -0.97665466920989     -5.92181229167713      0.83082559727549
  O           0.74003289525655     -4.63755003187474      0.63034995441746
  C           1.25145079236936      2.24885705994788     -3.59718921170271
  N           0.07887550851416      2.60549687703675     -2.83846527244009
  H          -0.36226913212716      1.88233327876763     -2.29005557714535
  H           1.00379551130454      1.48496508138340     -4.33360780352999
  H           1.60896851845836      3.14273155412107     -4.10519364970137
  H           2.03176653405863      1.87034456506087     -2.93555664677782
  C          -2.99639159447329      6.09370548347086     -1.44503154627758
  O          -3.76669271295351      5.58722753803174     -0.63900201247302
  C          -3.07456823219484      7.52481680745004     -1.89210384802070
  H          -3.90638065317783      8.01196382856713     -1.39251411691601
  H          -2.15109181373041      8.04410354228898     -1.64824140152972
  H          -3.22139871539434      7.56971040885120     -2.96834527525864
