47
Coordinates from ORCA-job /home/esp/scriptDevelopment/drFrankenstein/11_PCY_CHARMM/04_torsion_scanning/torsion_NH1-CT1-CG321-CG2R61/scans_PCY_conformer_4/PCY_conformer_4_backwards/orca_scan E -79.897517977370
  H          -2.92586471335714     -2.33609547314796     -0.05085606147816
  H           0.24211809523917     -2.13706649349130      1.60752944317375
  H           0.69831725764907     -0.56591960892528     -1.71290547605219
  H          -1.55815688180063      4.04186188045063      0.20846455833217
  H          -1.88432416039250     -3.74561770224276     -0.23613203175727
  H           0.86588396913383      1.89652323820367     -1.66516075449988
  H          -2.52505453410285     -0.38712114486800      1.08415906750464
  H           0.19832058242547      3.92316762183518      0.40173437571683
  H          -1.19705447825597     -2.96810671133015      5.54366058417740
  H          -2.37696573235254      2.03572719527814      1.10538693111639
  H          -3.36590499502292     -3.67444940143434      4.57371403075063
  H          -0.74308865369099      4.16526293855049     -3.54505532331266
  H           0.61688149228361     -2.21623935680962      4.02965875933765
  N          -1.13799156313960      3.77941245115294     -2.68081224432081
  C          -0.46140572895095      4.24330776598859     -1.59518852494022
  C           0.53922911408237      5.23418611426609     -1.96703471875598
  C          -0.63896942639265      3.65195469179680     -0.24242269998716
  O           0.70051036733484      5.51737011176666     -3.17293080308731
  C          -0.75120740419108      2.14480900028936     -0.27958237986731
  C           0.11816229125320      1.39666146747369     -1.06705702445098
  C           0.03397115953252      0.02124880482295     -1.09929358593123
  C          -0.92415015617774     -0.64319198160101     -0.33465532919219
  C          -1.78119236188078      0.09571159134389      0.47054202614715
  C          -1.69026734402349      1.47670190007472      0.48901387181495
  O          -0.92287932847071     -2.00898774549459     -0.44375919837694
  C          -1.93884694851708     -2.74318739668889      0.20191737150725
  C          -1.76173551448211     -2.84338735448999      1.69564733454723
  C          -0.54894073354746     -2.46827293192630      2.26169025935469
  C          -0.33884463991094     -2.51210616377099      3.62825397201458
  C          -1.35215640627761     -2.93512323398631      4.47798752472604
  C          -2.56074857303797     -3.32517446901325      3.94624204936397
  C          -2.77265279316971     -3.29211966405326      2.56356154136672
  N          -4.03410096662409     -3.73539548989382      2.10020981727845
  O          -4.93911845243201     -3.89394241424839      2.92047248526601
  O          -4.19782256659991     -3.95792163893510      0.89993556336476
  C           2.24808393194782      6.83746035035618     -1.25282346858128
  N           1.25492908244643      5.82543552095547     -0.98939622809278
  H           1.05106136245478      5.62299839224922     -0.02434709766783
  H           3.21508470458640      6.52775945538257     -0.85654836708538
  H           2.32117056358217      6.96306702145129     -2.33164300929270
  H           1.95867356929877      7.78520301248513     -0.79807711451158
  C          -2.31446560423016      3.07652383528295     -2.75864870996852
  O          -2.98211838137101      2.79051725147008     -1.77707478268137
  C          -2.68508235393528      2.71771948566867     -4.16909714629842
  H          -3.61908276364248      2.16431664931347     -4.16467210064559
  H          -2.80029790934628      3.61740705908990     -4.76833625829134
  H          -1.90291547392361      2.10509156935241     -4.61031112773422
