47
Coordinates from ORCA-job /home/esp/scriptDevelopment/drFrankenstein/11_PCY_CHARMM/04_torsion_scanning/torsion_NH1-CT1-CG321-CG2R61/scans_PCY_conformer_4/PCY_conformer_4_backwards/orca_scan E -79.892841689430
  H          -3.27624046204101     -2.04703148605410      0.14765972108719
  H           0.06290070275511     -2.48702541184217      1.35801330501488
  H           0.33170757588933     -0.92473715294950     -2.00953201615081
  H          -0.48893516531911      3.90049344671110      0.48344316853504
  H          -2.55596319433180     -3.62004309770715     -0.19030949349618
  H           0.95170850997522      1.46609545258814     -1.98132520581041
  H          -2.35512591938337     -0.25116383333409      1.24113458106291
  H           1.09301032837564      3.48090469903752     -0.18787121145063
  H          -0.96965169282935     -3.17940840541161      5.44598421800429
  H          -1.76503602502305      2.10257847029556      1.24870852192591
  H          -3.34087169670839     -3.44738764409243      4.77482212591474
  H          -0.63986164413975      4.23915760948325     -3.54169674824679
  H           0.73444748991663     -2.71595722798341      3.70575925458790
  N          -0.86181892971773      3.64897097903176     -2.73054855148224
  C          -0.28306608250987      4.17059478302811     -1.61360826549602
  C           0.30674301641443      5.47821443368201     -1.87892494395695
  C           0.01274530341009      3.41441338679255     -0.36054508518488
  O           0.20450352543426      5.98033216665783     -3.01775665114211
  C          -0.37450698658273      1.96114943605717     -0.37141173114754
  C           0.22273961996120      1.09043155189928     -1.27860085508691
  C          -0.11440281142169     -0.24467749916344     -1.30147827169232
  C          -1.05599480409022     -0.74674517358662     -0.40381654392775
  C          -1.63425189256406      0.10856150017664      0.52396595863349
  C          -1.29071940718790      1.44950608164808      0.53197346790097
  O          -1.31931901465731     -2.08718873332646     -0.51505783841990
  C          -2.35980211781029     -2.64034068527180      0.25858734062240
  C          -2.00669251160017     -2.82222871852697      1.71270472284697
  C          -0.68143941079208     -2.69220181855716      2.11119535132901
  C          -0.30394685214305     -2.82034659679881      3.43577845790475
  C          -1.25609896167515     -3.08198998535912      4.41192429772514
  C          -2.57550438482249     -3.22826020292173      4.04667469342451
  C          -2.95884804099023     -3.10976655560837      2.70624372532355
  N          -4.33026002148738     -3.30033319066516      2.41475700603861
  O          -5.13330131737481     -3.31281870346254      3.34875227823252
  O          -4.68876142765441     -3.45546036306891      1.24669313333598
  C           1.52479504802419      7.41714034553638     -1.00714307573984
  N           0.94470318857334      6.10344918699655     -0.86895648235707
  H           0.94893891948861      5.69294301512094      0.05023439486734
  H           2.57993067479303      7.39149524781290     -0.73622700042381
  H           1.42372641857278      7.72066622602449     -2.04758972830740
  H           1.00683050718476      8.13578709810224     -0.37114059714386
  C          -1.90653216453669      2.76436350644529     -2.88296468023088
  O          -2.55337083821385      2.32769180017353     -1.94620929104394
  C          -2.16351231499922      2.42223261918375     -4.32248787586955
  H          -2.97181171599959      1.69981027370463     -4.37943670494786
  H          -2.43882585953472      3.31572689899073     -4.87734044403071
  H          -1.26596716062692      2.00038227051094     -4.76707043153179
