47
Coordinates from ORCA-job /home/esp/scriptDevelopment/drFrankenstein/11_PCY_CHARMM/04_torsion_scanning/torsion_NH1-CT1-CG321-CG2R61/scans_PCY_conformer_4/PCY_conformer_4_backwards/orca_scan E -79.899187423480
  H          -2.48382977153674     -2.47008088242348     -0.18379411708695
  H           0.32096087195326     -1.86419763766827      1.95347222010596
  H           1.11798889713297     -0.32161737971628     -1.34669368384270
  H          -1.91954792447659      4.02000356038835      0.03921880587901
  H          -1.27525243382047     -3.75244242561761     -0.15367234376050
  H           0.98744537336880      2.14389280256125     -1.37846621358961
  H          -2.48665358385415     -0.46942604740643      0.94096486398362
  H          -0.20999112441982      4.14856014828112      0.47672641540367
  H          -1.62921716840328     -2.82288311455708      5.63217268247776
  H          -2.62374645794649      1.95565806164245      0.88740373282680
  H          -3.50909916844919     -3.80560793551472      4.34984330897325
  H          -1.02967949808331      4.28635719489841     -3.54819729767253
  H           0.30147694940309     -1.86620989183495      4.40567023898468
  N          -1.42477113386022      3.92747223799016     -2.67217623820971
  C          -0.63780297770027      4.27070284640091     -1.61711135498156
  C           0.50822668186104      5.06485980087428     -2.03566011430089
  C          -0.90445692442098      3.73941930923771     -0.25606031799176
  O           0.62187766262221      5.38478940990612     -3.23820033111584
  C          -0.82833765953651      2.22607190609490     -0.24078067709791
  C           0.22632168671463      1.57133567349970     -0.86929525103148
  C           0.30767709496423      0.19542331843543     -0.85829356177868
  C          -0.66994395792238     -0.56215526656198     -0.21381226317460
  C          -1.71952132475551      0.08570369655908      0.42487523885665
  C          -1.79238780587128      1.46820449837515      0.40298041000404
  O          -0.49314847771536     -1.91920567953432     -0.26400606630333
  C          -1.51156111110536     -2.75649121312652      0.23629026137681
  C          -1.56996722018186     -2.81374042317821      1.74146930133002
  C          -0.52039320139856     -2.28338287683851      2.48240826222622
  C          -0.53252640369009     -2.28441425400468      3.86566719768227
  C          -1.61154949461205     -2.82153291639299      4.55490180401813
  C          -2.66087487132348     -3.36562648315557      3.84887199262449
  C          -2.64742262011375     -3.37432807055990      2.44976042562004
  N          -3.75499500965836     -3.97372429376748      1.80436825131622
  O          -4.75285535577121     -4.23995567178971      2.47520824235795
  O          -3.69736379398248     -4.21959613690431      0.59900011796317
  C           2.57274919102676      6.23142847049784     -1.41906220080459
  N           1.41106286104935      5.43665755055259     -1.10675322479165
  H           1.29713887257883      5.14513661807072     -0.14970473354276
  H           3.48412001856239      5.68033722320932     -1.18592734048726
  H           2.54858888009192      6.45720731853575     -2.48371519930052
  H           2.55888573594666      7.16169364797893     -0.85097671903330
  C          -2.65322993616581      3.31916416108391     -2.70981883939954
  O          -3.26350809361893      2.98175403935099     -1.70626280353225
  C          -3.16243170408609      3.12409335696469     -4.10964095922435
  H          -4.12568995199584      2.62435161690230     -4.07418066604069
  H          -3.27287000251503      4.08551118313801     -4.60503665324661
  H          -2.46090461428450      2.51880894912281     -4.67801460266922
