47
Coordinates from ORCA-job /home/esp/scriptDevelopment/drFrankenstein/11_PCY_CHARMM/04_torsion_scanning/torsion_NH1-CT1-CG321-CG2R61/scans_PCY_conformer_4/PCY_conformer_4_backwards/orca_scan E -79.901384806370
  H          -0.37328674776283     -2.37696322887928     -0.26694686408379
  H          -0.29899190779761     -1.19676861245550      3.11339395853850
  H           2.27556942899878      0.71459843073295      1.32360582863684
  H          -1.61822532626958      4.27146775237578      0.41934493429232
  H           0.65719021906406     -3.29509652108986      0.82813441290495
  H           1.67234748028084      3.05659720620897      0.87062071992957
  H          -1.64004860598097     -0.51909900121085      0.14340662578219
  H           0.08874006068055      4.70226084423576      0.19310992802806
  H          -4.03944981159225     -2.87007361313072      4.31993670377320
  H          -2.22757942545703      1.79344207294783     -0.32591207437062
  H          -4.07862855200822     -4.21890538740937      2.24069946986867
  H          -2.13923527192469      4.22348747390405     -3.14773970029936
  H          -2.11674238194590     -1.36498298458411      4.74861665330747
  N          -2.20418627371267      4.16577186240267     -2.12492318398588
  C          -0.96118998687341      4.15839039093502     -1.57885325741814
  C           0.07903273144687      4.18055737135745     -2.59790196394126
  C          -0.70340531254965      4.02116707546102     -0.11991586255130
  O          -0.23827104154668      4.29510926879651     -3.80020255464468
  C          -0.31689625214780      2.59159001241409      0.20357625531060
  C           0.95049620321205      2.27616346488431      0.68030642599619
  C           1.29654654202546      0.96860321998368      0.95073026401558
  C           0.37837180420434     -0.06056847392996      0.74640354526979
  C          -0.89655939103722      0.24878147737627      0.28682459562810
  C          -1.22972779636513      1.56444015070379      0.01642679554618
  O           0.82842704279868     -1.31800614137833      1.04072797932383
  C          -0.00251329420949     -2.42308940563587      0.76447111369083
  C          -1.13854506272683     -2.58921026175687      1.74146148683600
  C          -1.13220304261766     -1.85409900333532      2.92106633131309
  C          -2.15850886368883     -1.94935605051757      3.84372069760229
  C          -3.23562968585871     -2.79279228920749      3.60672393582575
  C          -3.26530797527632     -3.54227711227460      2.45214450562200
  C          -2.22456013011176     -3.45461104623031      1.52117060102082
  N          -2.32488096542111     -4.27508245323194      0.37229655008411
  O          -3.39786639549908     -4.83206790720190      0.13972555302418
  O          -1.34636801257755     -4.41650173013584     -0.36145628007477
  C           2.47191362115846      4.04884893662959     -3.10357644463327
  N           1.35924476368576      4.09671783047664     -2.18796884046868
  H           1.55099011878732      3.89845414623170     -1.21916629571067
  H           2.95105174363787      3.06937024081775     -3.07539652652087
  H           2.09070719137042      4.23388596838732     -4.10624288977729
  H           3.20158139237458      4.81502350755467     -2.84359974138716
  C          -3.45427528142308      4.16216181372297     -1.56156203576323
  O          -3.65035950250408      4.10411454425372     -0.35433778400631
  C          -4.55140341036959      4.22706641991692     -2.58525370847970
  H          -5.51337018502727      4.21617486347590     -2.08188308371170
  H          -4.45992826513271      5.13783036429952     -3.17181842888582
  H          -4.48507618631017      3.37545451310876     -3.25802835045663
