47
Coordinates from ORCA-job /home/esp/scriptDevelopment/drFrankenstein/11_PCY_CHARMM/04_torsion_scanning/torsion_NH1-CT1-CG321-CG2R61/scans_PCY_conformer_4/PCY_conformer_4_backwards/orca_scan E -79.900812442390
  H          -0.84348434087710     -2.46615987467435     -0.37560663842354
  H          -0.07585322135330     -1.34986538857176      2.94128748596237
  H           2.24426219970914      0.42778349701715      0.72831485617158
  H          -1.68630088966843      4.15868955188648      0.37581593909639
  H           0.30359095136823     -3.46521079496825      0.51356830083574
  H           1.72382849558383      2.80656930760559      0.42139948008859
  H          -1.89141624969047     -0.53696431274830      0.26942276235019
  H           0.03499105881010      4.59069077861295      0.31634177547737
  H          -3.65336558873306     -2.77038737293097      4.79365693093989
  H          -2.40406384098730      1.81688638788495     -0.05336877306600
  H          -4.16160585950846     -4.07940354935982      2.75111453984460
  H          -1.91461144211932      4.13884727152891     -3.23697329064546
  H          -1.57874802455459     -1.41560585686787      4.87620452175389
  N          -2.06226975755470      4.03370212839022     -2.22607357958109
  C          -0.88026286028429      4.17359502314912     -1.57046270531956
  C           0.21686927796924      4.41896997237719     -2.49781053082766
  C          -0.73232040281881      3.94392329998015     -0.10710185173452
  O          -0.02362031525146      4.51486083712299     -3.71977023053482
  C          -0.38268807408072      2.48580086566186      0.12854109950161
  C           0.92717017516563      2.08157802969873      0.35951355283686
  C           1.23187359156030      0.74941866941390      0.54459607716850
  C           0.22835745006382     -0.21763493212964      0.49970230718317
  C          -1.08571043528244      0.17976830562740      0.28405223692880
  C          -1.37745621570334      1.51967569553833      0.09683800787703
  O           0.64236165106588     -1.50668108055123      0.69526825586337
  C          -0.29690546482401     -2.55109648799112      0.57173581412515
  C          -1.24732235841660     -2.65511895710716      1.73740134053956
  C          -0.97597114733043     -1.94259238726535      2.89954929317274
  C          -1.82474797514829     -1.97984614217877      3.99123501810445
  C          -2.98613431310612     -2.73949755273968      3.94827141499867
  C          -3.27635717436909     -3.46601622930960      2.81531299301054
  C          -2.41494935215427     -3.43802824512065      1.71313190558766
  N          -2.77706423078388     -4.23284832302093      0.59929533441979
  O          -3.91160844017451     -4.70903264838062      0.56092086569142
  O          -1.95722529920516     -4.43283323148623     -0.29718265782679
  C           2.62331252110047      4.75501322606212     -2.81504321458605
  N           1.45609392396823      4.55975008100264     -1.99223908352053
  H           1.60221250520395      4.42986823716164     -1.00468486971790
  H           3.28651640703832      3.89152018322295     -2.74862121847150
  H           2.29225238305818      4.87527481183866     -3.84496742618325
  H           3.16034900098774      5.64850916820382     -2.49800175664742
  C          -3.35062051144851      3.88956801138773     -1.78243304998978
  O          -3.65260093208484      3.80232115730342     -0.59881857959086
  C          -4.34762204937457      3.84167788491753     -2.90472279385295
  H          -5.34592816845623      3.72307793907320     -2.49432796310754
  H          -4.30144796023894      4.75986122760066     -3.48507812307772
  H          -4.12476869706962      3.00560181813193     -3.56324377282505
