47
Coordinates from ORCA-job /home/esp/scriptDevelopment/drFrankenstein/11_PCY_CHARMM/04_torsion_scanning/torsion_NH1-CT1-CG321-CG2R61/scans_PCY_conformer_4/PCY_conformer_4_backwards/orca_scan E -79.894692566560
  H          -2.91132517928179     -2.13057573376441     -0.24114744544453
  H           0.06496438663708     -2.38872508663727      1.73774002839383
  H           1.18580019103776     -1.67910021581348     -1.69142926141813
  H           1.25814843826250      3.30912675215468     -0.19513149074336
  H          -2.26854704417792     -3.75787577625176     -0.03727799235792
  H           1.99585628349251      0.61823492557369     -2.06493875566448
  H          -2.11243403809403     -0.14647186609735      0.54831979756538
  H           1.73863124893515      2.92363826257642     -1.85377966586783
  H          -1.82719808815235     -2.00916160630101      5.54978060058093
  H          -1.30907446436136      2.11682331308973      0.18211651251770
  H          -4.03014835582172     -2.33013008655624      4.45951774945579
  H          -1.94547132848275      4.31797948971928     -2.30999170414639
  H           0.22733252886707     -2.06152995958384      4.16258944539658
  N          -1.27671015101457      3.53935104463589     -2.30328663096905
  C          -0.13471677340216      3.90678951046317     -1.66149329817598
  C          -0.14164759844404      5.32527637339836     -1.32325143207220
  C           0.89038216420010      2.94905868346925     -1.15995233285425
  O          -1.14236504980829      6.01888150063244     -1.60049713428814
  C           0.39428085509051      1.53746752262539     -0.97710846226457
  C           1.09892666804240      0.45437927907628     -1.48848736695385
  C           0.65214267526405     -0.83355730884555     -1.28809234279580
  C          -0.51562188430032     -1.07255862186707     -0.56496252034528
  C          -1.21566798950219      0.00229380628201     -0.03245635929277
  C          -0.75532357924389      1.29094843800186     -0.24066183961132
  O          -0.86882673840472     -2.38970693317330     -0.43005367878885
  C          -2.08867605337534     -2.70448867734586      0.20310665411319
  C          -2.05605514425117     -2.53604897741047      1.70103846479806
  C          -0.83155054197914     -2.36935573429760      2.33720387709711
  C          -0.74104424782538     -2.18387194767816      3.70508461002480
  C          -1.88997624428166     -2.15636495870562      4.48430336023529
  C          -3.11706895606365     -2.33022494182796      3.88472496381175
  C          -3.21113955215061     -2.52807246027662      2.50266034624944
  N          -4.50839132280697     -2.72133589233101      1.97248544380297
  O          -5.47956106053217     -2.47099229024512      2.68817288150435
  O          -4.64003835808480     -3.13592591820336      0.81977394748353
  C           1.06534569179264      7.23790205458179     -0.38133197550797
  N           0.95104829549744      5.84166271509939     -0.72566295327970
  H           1.76941651965878      5.26882537929475     -0.59842177689230
  H           1.85610316168344      7.71382258100294     -0.96202138427826
  H           0.11510463391850      7.71834237807954     -0.60735543995643
  H           1.28388621851662      7.34485918472702      0.68091605331373
  C          -1.53106387903057      2.47042647345163     -3.13001455445619
  O          -0.67251547236398      1.66936790806398     -3.45953018011113
  C          -2.96117655336502      2.41680174712867     -3.58588985825729
  H          -3.10489848254324      1.54143956957341     -4.21171894578603
  H          -3.62159863030671      2.35979031220790     -2.72430774955474
  H          -3.20854719944380      3.31056578830341     -4.15332020420976
