47
Coordinates from ORCA-job /home/esp/scriptDevelopment/drFrankenstein/11_PCY_CHARMM/04_torsion_scanning/torsion_NH1-CT1-CG321-CG2R61/scans_PCY_conformer_4/PCY_conformer_4_backwards/orca_scan E -79.895884552370
  H          -2.95374788598637     -2.08062467591478     -0.18020142354347
  H           0.06623386251560     -2.36707400147165      1.72267808061191
  H           1.10702586769248     -1.74245151963147     -1.75238364954645
  H           1.39994821875957      3.24273970496032     -0.37663156046454
  H          -2.34184785933910     -3.71922734544159      0.02843342337419
  H           1.95199589686056      0.53136434289528     -2.19066815431795
  H          -2.09139680643415     -0.10275279846802      0.55563390387830
  H           1.69107911306574      2.85009377999171     -2.07857967068905
  H          -1.71691348447658     -1.91914806885379      5.57965192765450
  H          -1.25365123142784      2.13699525146606      0.12464939760429
  H          -3.95306465993032     -2.21517275133380      4.55180600646162
  H          -1.93829393598387      4.27350216490450     -2.36614923075635
  H           0.29857082950445     -2.01702276775794      4.13871755114460
  N          -1.24110835943068      3.52162591777755     -2.39891053211423
  C          -0.12997634064118      3.87290027888886     -1.69691185851770
  C          -0.20085957950526      5.25261104278774     -1.23303328395600
  C           0.92360041880977      2.90035966233207     -1.29775835545904
  O          -1.22822199459566      5.92488058599912     -1.46257218544259
  C           0.40362588400267      1.50143708163358     -1.07126915345701
  C           1.07003036411580      0.39540342564457     -1.58488019969608
  C           0.60313965055866     -0.87916340320922     -1.34837639795967
  C          -0.54729116190874     -1.08121591288550     -0.58686877622109
  C          -1.20932758501630      0.01703160605971     -0.05366155617845
  C          -0.72937974322330      1.29233265030219     -0.29871707338147
  O          -0.92299672708687     -2.38810796927027     -0.41886706603758
  C          -2.13244177324341     -2.66711375583933      0.24986554890961
  C          -2.05703517517900     -2.48074503163364      1.74409442570075
  C          -0.81344538821383     -2.32696375374007      2.34559086043109
  C          -0.68348520953633     -2.12881085839517      3.70847069831026
  C          -1.81052089775268     -2.07564591854660      4.51776561450154
  C          -3.05583725649508     -2.23571035291936      3.95293592488046
  C          -3.19004547579973     -2.44548422018975      2.57593731484926
  N          -4.50416321566202     -2.62198315345511      2.08245021609918
  O          -5.45139975854453     -2.35334150902412      2.82301181073149
  O          -4.67363418471998     -3.04014537302317      0.93607250645209
  C           0.90847604325504      7.12651323754120     -0.11087599143592
  N           0.86059970140093      5.76183756512185     -0.57585003295287
  H           1.70346000934844      5.21782565870883     -0.48782942778160
  H           1.67999196826488      7.68631951189863     -0.64053456753997
  H          -0.06151558060402      7.58128251344467     -0.30375999501994
  H           1.11580273759074      7.15077634192691      0.95867747221925
  C          -1.44590010203310      2.48843532617303     -3.28115150700047
  O          -0.56254498228998      1.71323352814278     -3.60865098379552
  C          -2.85472230999253      2.43792863001572     -3.79931413009485
  H          -2.96147743944486      1.58686711522892     -4.46486026175602
  H          -3.55062507349347      2.34038253494488     -2.96990418086781
  H          -3.08771938775433      3.35120568221344     -4.34131147783081
