47
Coordinates from ORCA-job /home/esp/scriptDevelopment/drFrankenstein/11_PCY_CHARMM/04_torsion_scanning/torsion_NH1-CT1-CG321-CG2R61/scans_PCY_conformer_4/PCY_conformer_4_backwards/orca_scan E -79.900854637570
  H           0.44842603850256     -2.27655256883460      0.07680463957802
  H          -0.59114297871495     -1.06065280949398      3.28430138985344
  H           2.02895752550355      1.23971249095955      2.14204938057368
  H          -1.90626535779535      4.19248834598585      0.38037203385412
  H           1.26831615763183     -2.99270843534512      1.46195984997995
  H           1.20104704425118      3.44508858501428      1.40951478446720
  H          -1.15782155904416     -0.65450474927058      0.01915132185849
  H          -0.26704781482783      4.76348830949854      0.11431696181798
  H          -4.21859877339944     -3.30299043410413      3.52282347599450
  H          -1.96488431750165      1.52158027190246     -0.71118681128746
  H          -3.47642023116766     -4.66298346610074      1.58825968788847
  H          -2.34436894702079      4.67308941879769     -3.13920961551325
  H          -2.74064855641242     -1.50341097860979      4.37381981027102
  N          -2.35968803310851      4.69446374158298     -2.11284851944076
  C          -1.26368572378012      4.06401989043867     -1.61561906603811
  C          -0.38571712028246      3.59100108900892     -2.67871317239122
  C          -0.97979528000223      3.97698605943229     -0.15864692871293
  O          -0.74786785687924      3.70859266624195     -3.86826582830348
  C          -0.43658010919014      2.64093293296887      0.28015798862475
  C           0.68866361595929      2.54871856145964      1.09469594638623
  C           1.15823354970315      1.32060342896546      1.51186723755817
  C           0.51044338134796      0.14778342456364      1.12422711762111
  C          -0.62132135528500      0.23092484178733      0.32069500029125
  C          -1.08225501497199      1.46865048631525     -0.09138173177859
  O           1.06159057212414     -1.01194935370008      1.59374612695143
  C           0.52326989088437     -2.24462768513293      1.17075844446735
  C          -0.79744991782636     -2.58433022699320      1.81353692497145
  C          -1.22848857065113     -1.84582047416359      2.90924727231693
  C          -2.44214704551425     -2.09604467504022      3.52424434250605
  C          -3.27064982630572     -3.10453295351653      3.05076566678173
  C          -2.86603734753327     -3.86137109550357      1.97411104768656
  C          -1.63490769680725     -3.61695240865167      1.35574940616376
  N          -1.28769858530483     -4.45644432102340      0.27092807076804
  O          -2.15677337359222     -5.18416787552995     -0.21130018767861
  O          -0.13457682809939     -4.44604359884184     -0.16226735852029
  C           1.73932474208912      2.54097586574833     -3.29358112599531
  N           0.81265094210063      3.08429084134844     -2.33227696114029
  H           1.02897702925456      2.95914643809355     -1.35466874026349
  H           1.85036003200370      1.46500739494322     -3.15134039928898
  H           1.34428297587176      2.73457655784117     -4.28932329549595
  H           2.71216917359769      3.01943306593333     -3.18713129755417
  C          -3.45142096504286      5.25093137065724     -1.49773578399988
  O          -3.58789139790522      5.29941122800135     -0.28167815130579
  C          -4.45289515169540      5.79751120562611     -2.47363305193779
  H          -5.28709143667110      6.22780220066988     -1.92788635175008
  H          -3.99018966411273      6.56313944501106     -3.09135782328040
  H          -4.81539583437960      5.00371795105877     -3.12209172755492
