47
Coordinates from ORCA-job /home/esp/scriptDevelopment/drFrankenstein/11_PCY_CHARMM/04_torsion_scanning/torsion_NH1-CT1-CG321-CG2R61/scans_PCY_conformer_4/PCY_conformer_4_backwards/orca_scan E -79.898985532590
  H           0.54428569063359     -2.29553434407921      0.12082562819530
  H          -0.58654888285219     -1.06517106215256      3.28366404503094
  H           1.86521755097874      1.36602240298960      2.12964398588313
  H          -2.36566314330974      3.87442826184968      0.17994640812431
  H           1.42216091210436     -2.92069637443191      1.51365326049223
  H           0.87410176258409      3.49425740680599      1.36926987939275
  H          -1.15785479643513     -0.79049973128351      0.01793505412257
  H          -0.82435231479019      4.68525154554034      0.26371632053116
  H          -4.01533133395499     -3.58879052582170      3.61983214771557
  H          -2.12309837154837      1.31000370758378     -0.74474783808883
  H          -3.16261021958191     -4.95711846701837      1.73781486221893
  H          -2.17024684650930      5.04402072028306     -3.20189931487487
  H          -2.69142726047810     -1.64102071349466      4.39556705293844
  N          -2.29390902129656      4.96883406248848     -2.18526347907402
  C          -1.40086364721985      4.08233166132851     -1.66853332755583
  C          -0.50655811065917      3.57744618667536     -2.70501092385635
  C          -1.34026157996243      3.83621906229163     -0.20221450541972
  O          -0.74221842870440      3.86667310014637     -3.89764556131606
  C          -0.68926400942415      2.55469683180480      0.23922192131617
  C           0.43415687517108      2.55780159981568      1.06230920112782
  C           0.99511869208011      1.37335609881220      1.49352074532432
  C           0.43984080841444      0.14998194534609      1.11814968166161
  C          -0.69093656414267      0.13697003940487      0.30832666153662
  C          -1.24283664917694      1.33104096438559     -0.12019468990072
  O           1.07347097136791     -0.95775151134007      1.60710040437537
  C           0.62315924979046     -2.23453760140959      1.21312557906904
  C          -0.66605150250789     -2.65548369000538      1.87186372206754
  C          -1.15661394347635     -1.91378543640953      2.93990450950943
  C          -2.34525972875083     -2.23944168572013      3.56844561624496
  C          -3.08715994596073     -3.33080676170819      3.13731112430584
  C          -2.62096498256015     -4.09301332461194      2.08983626706041
  C          -1.41473790362979     -3.77168135770836      1.45730284811500
  N          -0.99937464215455     -4.62180099252662      0.40594746059635
  O          -1.79566098848235     -5.45835421162405     -0.02529909827645
  O           0.14081237798022     -4.51529767054084     -0.05060259544352
  C           1.49366052393142      2.29372936836282     -3.29083357166973
  N           0.56742941457954      2.85488744915356     -2.33945510916642
  H           0.70674033214055      2.63866375496181     -1.36334629772655
  H           1.48537463019899      1.20489721011563     -3.23006818988425
  H           1.18435236308691      2.60398833356409     -4.28733702544146
  H           2.50207516525582      2.65595923675718     -3.09268809092788
  C          -3.32425282488191      5.66292923896536     -1.60618974223918
  O          -3.58063555844677      5.61277106875801     -0.41022334171868
  C          -4.09199540186734      6.49288755685811     -2.59422314703072
  H          -4.89015589279336      7.01823525934933     -2.07876684703036
  H          -3.42973612282928      7.21386917173758     -3.06688362112274
  H          -4.51638670191071      5.85661221575103     -3.36684806919150
