47
Coordinates from ORCA-job /home/esp/scriptDevelopment/drFrankenstein/11_PCY_CHARMM/04_torsion_scanning/torsion_NH1-CT1-CG321-CG2R61/scans_PCY_conformer_4/PCY_conformer_4_backwards/orca_scan E -79.898047986970
  H           0.58398878356277     -2.30092103107741      0.15504662592698
  H          -0.57499988676375     -1.07510925927498      3.31206917714662
  H           1.75708281980580      1.45428493693281      2.06982556269687
  H          -2.64388417062369      3.63789543738067     -0.06036574045052
  H           1.49761735862816     -2.86051438662108      1.55283154648266
  H           0.66659580070542      3.51898112096612      1.26886286068936
  H          -1.19656393264372     -0.88144619771303      0.05260226964196
  H          -1.23339628780308      4.58434674242613      0.31420298939763
  H          -3.89147145848903     -3.73680917964956      3.70721424355842
  H          -2.26021186323764      1.15515081034831     -0.74894271756173
  H          -2.99673591812920     -5.09075650238422      1.83426895266450
  H          -2.02304008115863      5.24992979290891     -3.21236169021197
  H          -2.64497004200956     -1.72577229721159      4.44879372735459
  N          -2.23601419653077      5.09714734492437     -2.21932051387587
  C          -1.45246668436943      4.10403907990128     -1.71735453281922
  C          -0.52474558725755      3.61450441191533     -2.73127009217721
  C          -1.57446364063357      3.72811942007913     -0.28114117760439
  O          -0.63813288899280      4.03845862482161     -3.90180246069778
  C          -0.86752623265677      2.48542119560008      0.18217813328836
  C           0.26415925354123      2.55686578466580      0.99171643816329
  C           0.88062870977458      1.40858950844708      1.44416948199658
  C           0.37373261462637      0.15335849937706      1.10617609525750
  C          -0.76553710242925      0.07198619452789      0.31258333874578
  C          -1.37370793273924      1.23055245047415     -0.13790813020458
  O           1.05953382716014     -0.91390927641320      1.61339825654542
  C           0.66616724510172     -2.21726173445312      1.24559060838127
  C          -0.59843102617378     -2.68478748211682      1.92048716649662
  C          -1.11139997919750     -1.95134070719827      2.98365274220429
  C          -2.28028009236128     -2.31907497653479      3.62594799538254
  C          -2.97881654958700     -3.44587269537549      3.21391931839938
  C          -2.48926758596689     -4.20041966922337      2.17155944607157
  C          -1.30264916109378     -3.83632320187619      1.52524551527699
  N          -0.86034869236506     -4.68022399269817      0.48006988140112
  O          -1.62708545281065     -5.54962728613842      0.05970577241130
  O           0.27334024860549     -4.53539362981668      0.01729064888705
  C           1.39388031197233      2.20987205809731     -3.31116815622769
  N           0.44209324870718      2.75100191480418     -2.37343916151754
  H           0.49606044550462      2.44238257166449     -1.41388145471423
  H           1.30102132249463      1.12446089797142     -3.35863427470398
  H           1.18402832617536      2.63611533167266     -4.29055683143641
  H           2.40875618632425      2.46967725714970     -3.01070674034127
  C          -3.23694253906478      5.83687799808506     -1.64559991358976
  O          -3.58318240303111      5.70682364735963     -0.47905731364624
  C          -3.85129150116181      6.82102114438672     -2.59893671629192
  H          -4.62802199552972      7.38042442690530     -2.08651548510652
  H          -3.09190109034637      7.50713150043212     -2.96541020177848
  H          -4.28221052753251      6.29812340155099     -3.44907548951135
