47
Coordinates from ORCA-job /home/esp/scriptDevelopment/drFrankenstein/11_PCY_CHARMM/04_torsion_scanning/torsion_NH1-CT1-CG321-CG2R61/scans_PCY_conformer_4/PCY_conformer_4_backwards/orca_scan E -79.898417386290
  H          -2.73583268517377     -2.39570525337968     -0.10963791636979
  H           0.28372358071928     -1.99884640855684      1.76774271443615
  H           0.87693622434183     -0.44601212243513     -1.56196244071871
  H          -1.76877240147461      4.04526779148011      0.10881973603884
  H          -1.61063343565487     -3.74834950763278     -0.20972578980736
  H           0.89777810515147      2.02318951405104     -1.54761062288758
  H          -2.51701216997233     -0.41886081263591      1.03169161594290
  H          -0.03361264019729      4.04767608589488      0.45928401894947
  H          -1.37542982176089     -2.91612925880767      5.59672497937384
  H          -2.51004824622001      2.00988272596515      1.02070604203055
  H          -3.42068929437546     -3.76065031488246      4.47970509259727
  H          -0.86858484601329      4.21642480551300     -3.54722935011339
  H           0.48890163689578     -2.04958571279772      4.21085931941379
  N          -1.27106111889229      3.84992519548981     -2.67791723447915
  C          -0.54752671061832      4.26480486662170     -1.60304004190573
  C           0.53358032083682      5.15755575115785     -1.99592773599713
  C          -0.79012939268376      3.70739504297744     -0.24730178029759
  O           0.67873738503226      5.44381475738717     -3.20359014087091
  C          -0.80906176339219      2.19377944254658     -0.26147924689589
  C           0.14692234728752      1.48800279253851     -0.98495259832604
  C           0.14438092472276      0.10967545730443     -0.99879852869026
  C          -0.81853722414725     -0.59932858187719     -0.28152397155557
  C          -1.76573449467442      0.09868574067142      0.45656448583209
  C          -1.75568107229144      1.48293859538352      0.45774424718474
  O          -0.73062929238897     -1.96370062231568     -0.36563260138643
  C          -1.74861991127790     -2.74801560597516      0.21459373048621
  C          -1.67225925654605     -2.83177592541977      1.71777662913067
  C          -0.52925644232715     -2.37888476388581      2.36610557734316
  C          -0.41467961855228     -2.40731564528443      3.74438820235578
  C          -1.45646066768332     -2.89402334820711      4.52259360319686
  C          -2.59691132767823     -3.36122555790718      3.90883524432035
  C          -2.71205000218720     -3.34259603202354      2.51450538891825
  N          -3.90762453816888     -3.86398448667722      1.96559334683937
  O          -4.85470940414085     -4.08367466944279      2.72158349510979
  O          -3.97412977589215     -4.09128685339996      0.75701233374084
  C           2.42823242393302      6.55976763097664     -1.32859191366559
  N           1.34185405588042      5.65653430473111     -1.03993067619659
  H           1.18076203972144      5.42633107816965     -0.07307847234727
  H           3.37474091342239      6.13007905943928     -1.00029636271800
  H           2.45600844135789      6.71801213996165     -2.40525323525510
  H           2.27272447845435      7.51489056272431     -0.82650775853425
  C          -2.46995437481410      3.18646587296543     -2.74183314548842
  O          -3.11500697062676      2.87943542378295     -1.75089138213014
  C          -2.89688682352973      2.89396551681194     -4.15200136145910
  H          -3.85162527945854      2.37724866861882     -4.13797830178685
  H          -2.99347013250533      3.81867653233198     -4.71530689142431
  H          -2.15367174243736      2.26750612804752     -4.63887030193379
