25
-36.1353956495 converged=true
N         -1.49140        0.68321        0.70407
C         -0.19861        0.01431        0.54195
C          0.18440        0.07828       -0.94825
O          1.29604        0.35832       -1.33771
C          0.87063        0.71328        1.38235
C         -0.29950       -1.46648        0.92456
H         -1.66118        1.43894        0.05666
H          1.83821        0.25719        1.19740
H          0.93275        1.76567        1.11308
H          0.62076        0.62530        2.43609
H          0.64499       -1.95929        0.70886
H         -0.51909       -1.55655        1.98408
H         -1.09066       -1.96041        0.36423
C         -0.68251       -0.29213       -3.21113
N         -0.83957       -0.21745       -1.77935
H         -1.72243       -0.50236       -1.38546
H         -1.38813        0.37441       -3.71028
H          0.33535        0.01767       -3.44228
H         -0.83862       -1.31172       -3.56896
C         -2.22335        0.69562        1.85161
O         -1.99871       -0.00309        2.81255
C         -3.39243        1.66155        1.78546
H         -3.02260        2.68513        1.78324
H         -3.97749        1.49753        0.88353
H         -4.02285        1.51706        2.65769
