47
Coordinates from ORCA-job /home/esp/scriptDevelopment/drFrankenstein/11_PCY_CHARMM/04_torsion_scanning/torsion_NH1-CT1-CG321-CG2R61/scans_PCY_conformer_34/PCY_conformer_34_opt/orca_opt E -79.897785320370
  H      -0.468070     -0.644050      4.672840
  H      -0.852650     -3.389200      2.992610
  H      -1.775670      2.751100      2.414130
  H      -2.841200      0.683760     -2.521460
  H      -1.828730     -1.529510      3.940180
  H      -2.416080      3.316230      0.098010
  H      -2.392690     -1.388010      1.560990
  H      -3.984970      1.965430     -2.093870
  H       2.003440     -3.008910     -0.156750
  H      -2.981760     -0.831540     -0.732500
  H       2.199310     -0.587640      0.343040
  H      -0.084350      3.150040     -2.589190
  H       0.504300     -4.411180      1.225300
  N      -0.630680      2.308960     -2.379810
  C      -1.962490      2.605420     -2.401630
  C      -2.191030      3.990660     -2.760520
  C      -2.964730      1.604820     -1.946100
  O      -1.234470      4.708660     -3.076560
  C      -2.721260      1.275740     -0.488070
  C      -2.412550      2.284240      0.418520
  C      -2.054700      1.980060      1.713790
  C      -1.999090      0.651540      2.131130
  C      -2.384850     -0.354340      1.253470
  C      -2.732110     -0.037010     -0.046800
  O      -1.534320      0.445690      3.401160
  C      -1.013110     -0.819990      3.738560
  C      -0.086900     -1.418650      2.706430
  C      -0.169230     -2.777200      2.421730
  C       0.589210     -3.352770      1.418470
  C       1.433120     -2.570410      0.646370
  C       1.540770     -1.221800      0.915410
  C       0.806790     -0.655880      1.951960
  N       1.054390      0.737440      2.229430
  O       1.083720      1.089460      3.386830
  O       1.283490      1.458200      1.276940
  C      -3.779350      5.827760     -3.073740
  N      -3.468400      4.461670     -2.745180
  H      -4.219760      3.871780     -2.431770
  H      -2.846380      6.311190     -3.359600
  H      -4.482990      5.873940     -3.907800
  H      -4.208670      6.349510     -2.215040
  C       0.026220      1.127280     -2.150940
  O      -0.535090      0.058060     -2.017090
  C       1.519400      1.312030     -2.065700
  H       1.753900      1.684730     -1.068540
  H       2.011860      0.354540     -2.210490
  H       1.877410      2.026150     -2.802120
47
Coordinates from ORCA-job /home/esp/scriptDevelopment/drFrankenstein/11_PCY_CHARMM/04_torsion_scanning/torsion_NH1-CT1-CG321-CG2R61/scans_PCY_conformer_34/PCY_conformer_34_opt/orca_opt E -79.898288359710
  H      -0.485860     -0.658438      4.685862
  H      -0.861163     -3.425534      3.090098
  H      -1.727206      2.755420      2.412666
  H      -2.815233      0.726838     -2.534023
  H      -1.856536     -1.521120      3.948156
  H      -2.366686      3.336718      0.100374
  H      -2.380999     -1.373905      1.541282
  H      -3.965425      1.993571     -2.086585
  H       2.024434     -3.161673     -0.044824
  H      -2.966955     -0.802459     -0.748999
  H       2.208515     -0.722588      0.359093
  H      -0.083486      3.221670     -2.621804
  H       0.512330     -4.511901      1.374830
  N      -0.618545      2.376631     -2.400486
  C      -1.954863      2.655664     -2.405943
  C      -2.212004      4.036951     -2.764981
  C      -2.942815      1.641488     -1.950215
  O      -1.265233      4.782128     -3.080566
  C      -2.686813      1.301580     -0.496953
  C      -2.368786      2.303075      0.414233
  C      -2.011232      1.989410      1.707611
  C      -1.967455      0.658421      2.119584
  C      -2.362337     -0.340276      1.237557
  C      -2.707054     -0.013666     -0.061293
  O      -1.513265      0.444991      3.394164
  C      -1.023190     -0.834551      3.747626
  C      -0.095339     -1.467488      2.737161
  C      -0.175687     -2.835307      2.501248
  C       0.593052     -3.447594      1.527086
  C       1.444297     -2.694117      0.733259
  C       1.545665     -1.335589      0.948811
  C       0.801046     -0.731730      1.957648
  N       1.027315      0.670994      2.169293
  O       0.980978      1.099854      3.306847
  O       1.225193      1.362587      1.181795
  C      -3.847614      5.831342     -3.083720
  N      -3.495935      4.473610     -2.754799
  H      -4.232178      3.862049     -2.444772
  H      -2.932132      6.348145     -3.368123
  H      -4.550377      5.853509     -3.917224
  H      -4.294975      6.335644     -2.225856
  C       0.056463      1.205548     -2.175763
  O      -0.493843      0.128190     -2.020266
  C       1.547017      1.402784     -2.122235
  H       1.797270      1.783599     -1.131711
  H       2.043814      0.448496     -2.270157
  H       1.882834      2.115032     -2.868957
47
Coordinates from ORCA-job /home/esp/scriptDevelopment/drFrankenstein/11_PCY_CHARMM/04_torsion_scanning/torsion_NH1-CT1-CG321-CG2R61/scans_PCY_conformer_34/PCY_conformer_34_opt/orca_opt E -79.897915099820
  H      -0.531252     -0.671896      4.695414
  H      -0.888873     -3.445080      3.162085
  H      -1.733365      2.760357      2.418611
  H      -2.799597      0.781309     -2.554337
  H      -1.895293     -1.519036      3.932549
  H      -2.360905      3.361928      0.108664
  H      -2.363916     -1.362316      1.502630
  H      -3.956017      2.032485     -2.088489
  H       2.067825     -3.301734      0.085487
  H      -2.945684     -0.771014     -0.783469
  H       2.257441     -0.853142      0.410393
  H      -0.083429      3.287938     -2.649649
  H       0.514512     -4.595050      1.514711
  N      -0.615142      2.443938     -2.417994
  C      -1.953904      2.712526     -2.407170
  C      -2.237638      4.090728     -2.765151
  C      -2.933551      1.687643     -1.960196
  O      -1.293386      4.867602     -3.071532
  C      -2.672562      1.331880     -0.512165
  C      -2.361143      2.325281      0.410344
  C      -2.011005      1.999950      1.703147
  C      -1.964724      0.664976      2.102691
  C      -2.350047     -0.327210      1.208717
  C      -2.690779      0.011643     -0.088186
  O      -1.522608      0.442870      3.382540
  C      -1.048409     -0.849349      3.746980
  C      -0.103716     -1.506218      2.766371
  C      -0.188344     -2.879844      2.570009
  C       0.597752     -3.528323      1.632454
  C       1.471308     -2.806532      0.831418
  C       1.575904     -1.442400      1.002388
  C       0.815248     -0.800602      1.978992
  N       1.039206      0.598233      2.133368
  O       1.052309      1.080787      3.263118
  O       1.375286      1.237171      1.134564
  C      -3.920664      5.838309     -3.100538
  N      -3.522719      4.490422     -2.771472
  H      -4.244480      3.853974     -2.473678
  H      -3.028004      6.398278     -3.375805
  H      -4.615219      5.831253     -3.937419
  H      -4.395211      6.315986     -2.245441
  C       0.069219      1.279316     -2.199116
  O      -0.482788      0.196842     -2.019967
  C       1.556867      1.468149     -2.183759
  H       1.831256      1.845388     -1.197858
  H       2.043577      0.511233     -2.342202
  H       1.875664      2.179351     -2.936023
47
Coordinates from ORCA-job /home/esp/scriptDevelopment/drFrankenstein/11_PCY_CHARMM/04_torsion_scanning/torsion_NH1-CT1-CG321-CG2R61/scans_PCY_conformer_34/PCY_conformer_34_opt/orca_opt E -79.898964031120
  H      -0.517406     -0.670345      4.687260
  H      -0.816999     -3.414520      3.063023
  H      -1.813118      2.745057      2.443868
  H      -2.828258      0.729336     -2.528669
  H      -1.862991     -1.549579      3.920573
  H      -2.426193      3.332559      0.126364
  H      -2.368553     -1.389142      1.530638
  H      -3.968819      2.006314     -2.083790
  H       2.069243     -3.064521     -0.064191
  H      -2.948760     -0.810393     -0.759808
  H       2.200095     -0.625699      0.358439
  H      -0.060214      3.169627     -2.615330
  H       0.583617     -4.458243      1.343215
  N      -0.616472      2.337824     -2.397488
  C      -1.945957      2.643661     -2.390287
  C      -2.186080      4.031233     -2.741411
  C      -2.951638      1.643742     -1.943447
  O      -1.220837      4.768683     -3.048467
  C      -2.711183      1.296762     -0.489383
  C      -2.419109      2.296757      0.432555
  C      -2.078227      1.980215      1.729867
  C      -2.014834      0.647186      2.131675
  C      -2.375741     -0.352707      1.236329
  C      -2.715386     -0.021899     -0.062605
  O      -1.564297      0.430711      3.406950
  C      -1.041659     -0.844938      3.741730
  C      -0.091935     -1.439082      2.729472
  C      -0.141309     -2.806297      2.482300
  C       0.641828     -3.394210      1.504214
  C       1.476714     -2.616232      0.715422
  C       1.548466     -1.257677      0.940431
  C       0.793154     -0.677369      1.957754
  N       0.995904      0.717730      2.180936
  O       0.975679      1.145155      3.327540
  O       1.239152      1.424273      1.206251
  C      -3.798947      5.847834     -3.058546
  N      -3.457431      4.484255     -2.736868
  H      -4.203361      3.878489     -2.436865
  H      -2.882609      6.365733     -3.337080
  H      -4.498950      5.875168     -3.893071
  H      -4.246638      6.344858     -2.197663
  C       0.033037      1.150410     -2.190177
  O      -0.548811      0.084772     -2.035986
  C       1.527191      1.296279     -2.162987
  H       1.808135      1.641284     -1.167716
  H       1.987498      0.329315     -2.340792
  H       1.872007      2.015629     -2.898151
47
Coordinates from ORCA-job /home/esp/scriptDevelopment/drFrankenstein/11_PCY_CHARMM/04_torsion_scanning/torsion_NH1-CT1-CG321-CG2R61/scans_PCY_conformer_34/PCY_conformer_34_opt/orca_opt E -79.898964756480
  H      -0.504462     -0.644933      4.693630
  H      -0.883464     -3.410094      3.126823
  H      -1.780467      2.763666      2.422735
  H      -2.775920      0.725345     -2.542275
  H      -1.875951     -1.506038      3.950810
  H      -2.396833      3.337976      0.102826
  H      -2.326842     -1.376571      1.531628
  H      -3.946370      1.976401     -2.097586
  H       1.985403     -3.196625     -0.028319
  H      -2.900830     -0.811539     -0.764001
  H       2.183045     -0.754389      0.346132
  H      -0.070692      3.241597     -2.627924
  H       0.476527     -4.523874      1.418232
  N      -0.603091      2.394091     -2.410788
  C      -1.939550      2.662005     -2.404817
  C      -2.215536      4.043433     -2.752676
  C      -2.920099      1.637338     -1.957750
  O      -1.270585      4.800503     -3.062827
  C      -2.671269      1.297756     -0.503259
  C      -2.385082      2.303534      0.413943
  C      -2.040970      1.994569      1.712136
  C      -1.975429      0.663824      2.121399
  C      -2.333102     -0.341695      1.230984
  C      -2.668840     -0.018826     -0.070817
  O      -1.534375      0.455793      3.400820
  C      -1.038675     -0.824337      3.754478
  C      -0.111468     -1.460242      2.747424
  C      -0.196826     -2.830784      2.528698
  C       0.563123     -3.458210      1.557354
  C       1.411156     -2.717850      0.747338
  C       1.520179     -1.357778      0.945403
  C       0.787526     -0.737122      1.955607
  N       1.031685      0.653871      2.153069
  O       1.014585      1.102870      3.289779
  O       1.295415      1.333863      1.166072
  C      -3.870103      5.825057     -3.058474
  N      -3.497233      4.469382     -2.740611
  H      -4.228829      3.847508     -2.438456
  H      -2.966191      6.361743     -3.341369
  H      -4.575544      5.838070     -3.889638
  H      -4.323264      6.311633     -2.193694
  C       0.082727      1.227982     -2.198064
  O      -0.464435      0.147745     -2.031999
  C       1.571799      1.421726     -2.167702
  H       1.837827      1.788198     -1.175854
  H       2.063781      0.467716     -2.332467
  H       1.896551      2.143714     -2.909928
47
Coordinates from ORCA-job /home/esp/scriptDevelopment/drFrankenstein/11_PCY_CHARMM/04_torsion_scanning/torsion_NH1-CT1-CG321-CG2R61/scans_PCY_conformer_34/PCY_conformer_34_opt/orca_opt E -79.899032537560
  H      -0.524277     -0.656718      4.690108
  H      -0.826249     -3.418250      3.115951
  H      -1.796250      2.749246      2.427290
  H      -2.809519      0.728608     -2.542568
  H      -1.875544     -1.533836      3.928705
  H      -2.407761      3.333775      0.108761
  H      -2.367340     -1.384882      1.524022
  H      -3.960984      1.996778     -2.095722
  H       2.051896     -3.131539     -0.025169
  H      -2.938276     -0.809985     -0.769517
  H       2.187931     -0.685490      0.352633
  H      -0.065559      3.200653     -2.629541
  H       0.569430     -4.497041      1.413516
  N      -0.612058      2.361728     -2.413499
  C      -1.943468      2.651310     -2.403420
  C      -2.198451      4.038488     -2.745598
  C      -2.939969      1.641999     -1.957115
  O      -1.241594      4.780768     -3.056227
  C      -2.695660      1.297032     -0.503034
  C      -2.403242      2.298428      0.416969
  C      -2.061769      1.983820      1.714582
  C      -2.002078      0.651472      2.119738
  C      -2.366538     -0.349328      1.226394
  C      -2.701548     -0.020628     -0.074137
  O      -1.560281      0.438220      3.398258
  C      -1.047324     -0.837715      3.745035
  C      -0.099712     -1.449854      2.742456
  C      -0.150887     -2.821921      2.521809
  C       0.629097     -3.429733      1.553843
  C       1.462723     -2.667961      0.748467
  C       1.537845     -1.305980      0.948451
  C       0.785532     -0.704094      1.956031
  N       0.993006      0.690951      2.155631
  O       0.952676      1.140218      3.292279
  O       1.258177      1.377456      1.172847
  C      -3.824811      5.848370     -3.039293
  N      -3.472227      4.485739     -2.727661
  H      -4.213374      3.874797     -2.426005
  H      -2.913854      6.372108     -3.323852
  H      -4.533162      5.874898     -3.867496
  H      -4.266824      6.338334     -2.170797
  C       0.055324      1.184125     -2.204681
  O      -0.509501      0.112846     -2.038238
  C       1.547496      1.351557     -2.181233
  H       1.825055      1.707519     -1.188700
  H       2.021612      0.389872     -2.353235
  H       1.881288      2.071837     -2.921010
47
Coordinates from ORCA-job /home/esp/scriptDevelopment/drFrankenstein/11_PCY_CHARMM/04_torsion_scanning/torsion_NH1-CT1-CG321-CG2R61/scans_PCY_conformer_34/PCY_conformer_34_opt/orca_opt E -79.899049771170
  H      -0.522728     -0.652477      4.690885
  H      -0.812974     -3.410613      3.111978
  H      -1.825493      2.747437      2.437401
  H      -2.804980      0.722521     -2.538794
  H      -1.869464     -1.538686      3.931658
  H      -2.428641      3.330008      0.116151
  H      -2.356502     -1.390166      1.525488
  H      -3.956386      1.992575     -2.097869
  H       2.037272     -3.100172     -0.052166
  H      -2.923134     -0.816789     -0.769573
  H       2.164652     -0.654829      0.332269
  H      -0.055771      3.185074     -2.624365
  H       0.575272     -4.477734      1.396331
  N      -0.606161      2.348677     -2.407695
  C      -1.936164      2.643142     -2.397078
  C      -2.187383      4.032037     -2.737413
  C      -2.936891      1.636417     -1.954663
  O      -1.227338      4.773031     -3.045364
  C      -2.699487      1.291850     -0.499275
  C      -2.418790      2.294411      0.423187
  C      -2.082517      1.980990      1.722489
  C      -2.014608      0.648609      2.126397
  C      -2.365512     -0.354090      1.229709
  C      -2.697613     -0.026373     -0.071786
  O      -1.574102      0.436480      3.405342
  C      -1.047518     -0.835695      3.747216
  C      -0.099404     -1.437766      2.739012
  C      -0.144858     -2.809504      2.514864
  C       0.630307     -3.410660      1.538900
  C       1.452450     -2.642108      0.727849
  C       1.522462     -1.280564      0.931201
  C       0.776829     -0.684853      1.948059
  N       0.983259      0.708701      2.152256
  O       0.949228      1.154869      3.291365
  O       1.242636      1.401524      1.171088
  C      -3.809989      5.845815     -3.030262
  N      -3.459475      4.481916     -2.720639
  H      -4.202676      3.871731     -2.422088
  H      -2.898475      6.369511     -3.313276
  H      -4.517591      5.874129     -3.858631
  H      -4.251992      6.334158     -2.161199
  C       0.056775      1.168560     -2.198332
  O      -0.513029      0.099438     -2.030565
  C       1.549742      1.327444     -2.184654
  H       1.835935      1.679169     -1.193050
  H       2.016898      0.363425     -2.361587
  H       1.882930      2.047432     -2.924745
47
Coordinates from ORCA-job /home/esp/scriptDevelopment/drFrankenstein/11_PCY_CHARMM/04_torsion_scanning/torsion_NH1-CT1-CG321-CG2R61/scans_PCY_conformer_34/PCY_conformer_34_opt/orca_opt E -79.899060867540
  H      -0.523931     -0.645473      4.691638
  H      -0.809447     -3.408851      3.128662
  H      -1.830382      2.748259      2.434708
  H      -2.796747      0.719215     -2.542453
  H      -1.870698     -1.535334      3.936403
  H      -2.430060      3.328706      0.112030
  H      -2.354249     -1.390564      1.524489
  H      -3.951555      1.987299     -2.103951
  H       2.028192     -3.109591     -0.047905
  H      -2.915997     -0.819509     -0.772352
  H       2.151531     -0.661896      0.323151
  H      -0.053516      3.188155     -2.628500
  H       0.575793     -4.482796      1.414723
  N      -0.602070      2.350278     -2.412649
  C      -1.932184      2.642020     -2.399396
  C      -2.186180      4.031872     -2.734871
  C      -2.931570      1.633052     -1.958909
  O      -1.227963      4.774303     -3.043074
  C      -2.696063      1.289650     -0.502841
  C      -2.419184      2.293256      0.419582
  C      -2.084696      1.981119      1.719643
  C      -2.015583      0.649071      2.124617
  C      -2.363518     -0.354676      1.227855
  C      -2.692920     -0.028319     -0.074626
  O      -1.578551      0.438458      3.404816
  C      -1.049558     -0.832039      3.749056
  C      -0.102287     -1.436384      2.741599
  C      -0.144934     -2.809603      2.525575
  C       0.628315     -3.414665      1.550610
  C       1.445426     -2.648667      0.732030
  C       1.513146     -1.286048      0.927747
  C       0.769709     -0.685714      1.943773
  N       0.974598      0.708629      2.140554
  O       0.935025      1.161400      3.276847
  O       1.238555      1.396123      1.156701
  C      -3.811546      5.845170     -3.017064
  N      -3.458632      4.480697     -2.712828
  H      -4.200751      3.868987     -2.414737
  H      -2.901465      6.370417     -3.301762
  H      -4.522220      5.875193     -3.842823
  H      -4.250731      6.330387     -2.144733
  C       0.064553      1.171951     -2.203941
  O      -0.501736      0.102007     -2.031586
  C       1.557135      1.335294     -2.193155
  H       1.844016      1.689176     -1.202461
  H       2.026833      0.372396     -2.369717
  H       1.887095      2.055588     -2.934448
47
Coordinates from ORCA-job /home/esp/scriptDevelopment/drFrankenstein/11_PCY_CHARMM/04_torsion_scanning/torsion_NH1-CT1-CG321-CG2R61/scans_PCY_conformer_34/PCY_conformer_34_opt/orca_opt E -79.899067388950
  H      -0.527137     -0.633816      4.690834
  H      -0.802459     -3.403940      3.148568
  H      -1.842835      2.748891      2.429665
  H      -2.787948      0.714086     -2.549124
  H      -1.870848     -1.532228      3.940599
  H      -2.437376      3.326614      0.104980
  H      -2.355461     -1.391552      1.521096
  H      -3.946796      1.980690     -2.116122
  H       2.022305     -3.118104     -0.040696
  H      -2.909858     -0.823594     -0.778327
  H       2.139592     -0.667556      0.314098
  H      -0.050290      3.187759     -2.634340
  H       0.581509     -4.486240      1.438726
  N      -0.597716      2.348715     -2.419925
  C      -1.927523      2.638913     -2.403303
  C      -2.182957      4.030960     -2.730473
  C      -2.926796      1.628050     -1.966866
  O      -1.226261      4.774470     -3.038671
  C      -2.695787      1.286321     -0.509559
  C      -2.424842      2.291335      0.413048
  C      -2.093064      1.980847      1.714189
  C      -2.021522      0.649201      2.120381
  C      -2.365190     -0.355923      1.223347
  C      -2.690706     -0.031381     -0.080505
  O      -1.589512      0.440502      3.402343
  C      -1.052869     -0.826117      3.749456
  C      -0.104446     -1.431821      2.743945
  C      -0.142173     -2.806934      2.538555
  C       0.630009     -3.416806      1.565896
  C       1.441133     -2.653796      0.738464
  C       1.505221     -1.289945      0.924681
  C       0.763380     -0.683761      1.938783
  N       0.967315      0.711418      2.127138
  O       0.917749      1.172455      3.259825
  O       1.239428      1.392443      1.140681
  C      -3.809544      5.846107     -2.994473
  N      -3.455235      4.479881     -2.699744
  H      -4.196515      3.866757     -2.402545
  H      -2.900968      6.372406     -3.281990
  H      -4.525423      5.880731     -3.815585
  H      -4.242918      6.326697     -2.116607
  C       0.071976      1.172055     -2.210222
  O      -0.491245      0.101778     -2.032133
  C       1.564243      1.339213     -2.205276
  H       1.853548      1.696102     -1.216306
  H       2.035794      0.377106     -2.381537
  H       1.890015      2.059010     -2.948943
47
Coordinates from ORCA-job /home/esp/scriptDevelopment/drFrankenstein/11_PCY_CHARMM/04_torsion_scanning/torsion_NH1-CT1-CG321-CG2R61/scans_PCY_conformer_34/PCY_conformer_34_opt/orca_opt E -79.899069161590
  H      -0.527222     -0.628340      4.691117
  H      -0.794540     -3.401404      3.157604
  H      -1.852956      2.748687      2.430301
  H      -2.780679      0.709662     -2.550291
  H      -1.869732     -1.532259      3.945447
  H      -2.443024      3.324417      0.103943
  H      -2.352332     -1.393199      1.521463
  H      -3.941951      1.975402     -2.121569
  H       2.015863     -3.112598     -0.044130
  H      -2.902174     -0.827320     -0.779703
  H       2.123253     -0.660319      0.303033
  H      -0.045600      3.183819     -2.636748
  H       0.587775     -4.482916      1.445833
  N      -0.592984      2.344639     -2.422757
  C      -1.922565      2.635391     -2.403240
  C      -2.177796      4.028620     -2.726231
  C      -2.922096      1.623809     -1.969060
  O      -1.221543      4.772447     -3.034908
  C      -2.694320      1.283244     -0.510897
  C      -2.428421      2.289227      0.412162
  C      -2.099350      1.979897      1.714278
  C      -2.025598      0.648548      2.121070
  C      -2.364144     -0.357674      1.223306
  C      -2.686930     -0.034374     -0.081514
  O      -1.596691      0.440789      3.404086
  C      -1.054696     -0.823517      3.751294
  C      -0.107003     -1.427501      2.744252
  C      -0.139410     -2.803380      2.543064
  C       0.631708     -3.412875      1.569328
  C       1.435961     -2.648658      0.736177
  C       1.494430     -1.284042      0.918026
  C       0.753947     -0.677889      1.933211
  N       0.951314      0.718970      2.116027
  O       0.900547      1.184028      3.247150
  O       1.221244      1.397378      1.127045
  C      -3.804171      5.845192     -2.980460
  N      -3.449815      4.477864     -2.690740
  H      -4.190619      3.864304     -2.393300
  H      -2.896291      6.371572     -3.270031
  H      -4.523194      5.882652     -3.798651
  H      -4.233770      6.323783     -2.099656
  C       0.076951      1.168002     -2.213126
  O      -0.486066      0.098065     -2.032511
  C       1.569234      1.335251     -2.212405
  H       1.861037      1.693302     -1.224606
  H       2.040442      0.373039     -2.388964
  H       1.892977      2.054264     -2.957690
47
Coordinates from ORCA-job /home/esp/scriptDevelopment/drFrankenstein/11_PCY_CHARMM/04_torsion_scanning/torsion_NH1-CT1-CG321-CG2R61/scans_PCY_conformer_34/PCY_conformer_34_opt/orca_opt E -79.899070913870
  H      -0.526932     -0.626419      4.690129
  H      -0.794607     -3.399999      3.155806
  H      -1.855635      2.748839      2.429381
  H      -2.779758      0.708220     -2.551009
  H      -1.868718     -1.532367      3.945990
  H      -2.444931      3.323964      0.102688
  H      -2.354247     -1.393259      1.521395
  H      -3.941766      1.973887     -2.124495
  H       2.017609     -3.109901     -0.044218
  H      -2.903194     -0.828033     -0.780247
  H       2.124579     -0.657656      0.303905
  H      -0.045036      3.181442     -2.638356
  H       0.588553     -4.480773      1.444284
  N      -0.592654      2.342425     -2.424484
  C      -1.922197      2.634062     -2.403967
  C      -2.176654      4.027640     -2.725820
  C      -2.922073      1.622574     -1.970378
  O      -1.220379      4.771240     -3.035252
  C      -2.695587      1.282622     -0.511865
  C      -2.430258      2.288854      0.411119
  C      -2.101734      1.979846      1.713457
  C      -2.027832      0.648610      2.120540
  C      -2.366052     -0.357842      1.222886
  C      -2.688314     -0.034917     -0.082153
  O      -1.599205      0.440930      3.403682
  C      -1.054937     -0.822470      3.750764
  C      -0.107062     -1.425905      2.743530
  C      -0.139192     -2.801711      2.541848
  C       0.632447     -3.410805      1.568255
  C       1.437194     -2.646255      0.735860
  C       1.495370     -1.281674      0.918219
  C       0.754286     -0.676055      1.933182
  N       0.951286      0.721024      2.116421
  O       0.900847      1.185621      3.247773
  O       1.219987      1.399816      1.127439
  C      -3.802211      5.845214     -2.976334
  N      -3.448482      4.477351     -2.688348
  H      -4.189035      3.864016     -2.389863
  H      -2.894495      6.370998     -3.267493
  H      -4.522991      5.884035     -3.792890
  H      -4.229504      6.323686     -2.094344
  C       0.076699      1.165656     -2.213778
  O      -0.486851      0.096160     -2.031961
  C       1.569021      1.332607     -2.212796
  H       1.860402      1.692427     -1.225551
  H       2.040237      0.370083     -2.387589
  H       1.893009      2.050193     -2.959332
