47
Coordinates from ORCA-job /home/esp/scriptDevelopment/drFrankenstein/11_PCY_CHARMM/04_torsion_scanning/torsion_NH1-CT1-CG321-CG2R61/scans_PCY_conformer_34/PCY_conformer_34_opt/orca_opt E -79.899070913870
  H          -0.52693240404332     -0.62641894929768      4.69012866221066
  H          -0.79460747460354     -3.39999929271178      3.15580589473583
  H          -1.85563451885101      2.74883936000783      2.42938064611624
  H          -2.77975828174025      0.70822029677110     -2.55100932605839
  H          -1.86871756804901     -1.53236677796629      3.94599020152170
  H          -2.44493142905354      3.32396366642030      0.10268760380782
  H          -2.35424721890769     -1.39325908020828      1.52139520227201
  H          -3.94176550983364      1.97388702257258     -2.12449533129365
  H           2.01760867227517     -3.10990149145497     -0.04421755146462
  H          -2.90319384052379     -0.82803263136813     -0.78024673810480
  H           2.12457869805588     -0.65765554702386      0.30390549653327
  H          -0.04503607031966      3.18144173357612     -2.63835583738507
  H           0.58855298409151     -4.48077274949483      1.44428429616818
  N          -0.59265378940262      2.34242509303428     -2.42448367167993
  C          -1.92219696817502      2.63406207406149     -2.40396675906357
  C          -2.17665424616559      4.02764000959084     -2.72582024580248
  C          -2.92207349299358      1.62257371156001     -1.97037776231974
  O          -1.22037863896528      4.77123977898703     -3.03525224436224
  C          -2.69558705903981      1.28262179244514     -0.51186546242028
  C          -2.43025846318610      2.28885388243967      0.41111943295361
  C          -2.10173390304608      1.97984574202090      1.71345663736112
  C          -2.02783249874769      0.64861035850319      2.12054029082465
  C          -2.36605249485950     -0.35784227045001      1.22288648712862
  C          -2.68831429586917     -0.03491683412792     -0.08215300482752
  O          -1.59920451150744      0.44093003764166      3.40368215721772
  C          -1.05493650940083     -0.82246963943343      3.75076423974608
  C          -0.10706150759935     -1.42590517659658      2.74352972527769
  C          -0.13919233986007     -2.80171050110098      2.54184764615381
  C           0.63244676596822     -3.41080520497971      1.56825491486154
  C           1.43719383282127     -2.64625489959463      0.73585980110504
  C           1.49536984730556     -1.28167432090571      0.91821877576224
  C           0.75428628721747     -0.67605506256429      1.93318244839061
  N           0.95128572477921      0.72102367411907      2.11642051840745
  O           0.90084711265345      1.18562082410199      3.24777287376189
  O           1.21998666287665      1.39981578669186      1.12743900422309
  C          -3.80221136201301      5.84521383902752     -2.97633389868764
  N          -3.44848200960061      4.47735068150905     -2.68834827504530
  H          -4.18903465257069      3.86401568472764     -2.38986256334559
  H          -2.89449520119790      6.37099827311356     -3.26749253451309
  H          -4.52299102413338      5.88403473307685     -3.79288989910267
  H          -4.22950355226664      6.32368618737210     -2.09434393617641
  C           0.07669855013287      1.16565575033435     -2.21377819263166
  O          -0.48685096462888      0.09616036100303     -2.03196127413650
  C           1.56902119891557      1.33260749531563     -2.21279647842887
  H           1.86040153575249      1.69242732229194     -1.22555059297775
  H           2.04023700881039      0.37008273900900     -2.38758901657108
  H           1.89300891949901      2.05019251795335     -2.95933236014201
