47
-79.8740290894 converged=true
H         -3.66856       -0.76382        2.15199
H         -1.00663       -3.07369        1.15166
H         -1.90191        0.58312        2.05084
H          0.50584        3.64470       -0.46710
H         -3.83168       -2.49567        1.78555
H         -0.55324        2.43447        1.25980
H         -1.86145       -1.12434       -1.86957
H          1.39339        2.55200       -1.54018
H          0.96406       -3.23995        4.94013
H         -0.49084        0.76913       -2.66910
H         -0.84604       -1.85100        5.91055
H         -0.21933        4.10386       -4.33450
H          0.88158       -3.82749        2.53522
N          0.40533        3.63679       -3.66633
C         -0.22177        3.53663       -2.46255
C         -1.56243        4.09623       -2.51485
C          0.39633        2.90328       -1.26578
O         -1.97173        4.60636       -3.56468
C         -0.43043        1.74300       -0.76383
C         -0.83889        1.66178        0.55901
C         -1.60127        0.59866        1.01593
C         -1.97543       -0.40776        0.13492
C         -1.56599       -0.33423       -1.19762
C         -0.80572        0.72633       -1.63728
O         -2.72952       -1.49720        0.46174
C         -3.13176       -1.65131        1.80530
C         -1.97731       -2.01112        2.71630
C         -0.95718       -2.79902        2.19446
C          0.10024       -3.22742        2.97552
C          0.14895       -2.89903        4.32159
C         -0.85578       -2.12716        4.86688
C         -1.90338       -1.67025        4.07014
N         -2.86610       -0.82060        4.72220
O         -3.37155        0.07948        4.07480
O         -3.09171       -1.03184        5.89544
C         -3.66565        4.51627       -1.34355
N         -2.29890        4.06456       -1.37538
H         -1.96823        3.52156       -0.59392
H         -3.81337        5.21548       -0.51895
H         -3.86757        5.01861       -2.28821
H         -4.35529        3.67662       -1.22676
C          1.64791        3.23471       -4.08717
O          2.45575        2.67465       -3.37331
C          1.88975        3.56868       -5.53918
H          2.88014        3.22769       -5.82603
H          1.14525        3.08237       -6.16634
H          1.82108        4.64389       -5.69181
