47
-79.8693259192 converged=true
H         -0.88528       -1.35281        4.12456
H          0.30278       -2.47264        2.16507
H          1.68126       -0.17115        1.13332
H         -0.38206        4.54157       -0.85349
H         -1.72172        0.17623        3.73846
H          1.59491        1.38656       -0.78172
H         -0.79567        2.47035        3.38585
H          0.95567        3.67903       -1.64735
H         -1.78705       -2.51856       -1.56255
H         -0.85768        4.03265        1.50294
H         -3.31864       -0.77660       -0.69621
H         -1.28607        1.23718       -3.08384
H          0.01817       -3.38373       -0.10236
N         -0.50526        1.84987       -2.82229
C         -0.91423        2.70150       -1.83816
C         -2.29672        2.44156       -1.46685
C          0.03840        3.55861       -1.07229
O         -2.90280        1.49847       -1.99532
C          0.29680        2.77657        0.19704
C          1.06163        1.61686        0.12798
C          1.11430        0.74485        1.19548
C          0.39179        1.02130        2.35059
C         -0.27718        2.23133        2.47114
C         -0.32178        3.10019        1.39737
O          0.31444        0.05480        3.34203
C         -0.97582       -0.54534        3.39261
C         -1.32265       -1.10925        2.03110
C         -0.49241       -2.10851        1.53175
C         -0.65179       -2.61694        0.25634
C         -1.66414       -2.13770       -0.56087
C         -2.52535       -1.17348       -0.08073
C         -2.35580       -0.66010        1.20386
N         -3.33059        0.31809        1.60954
O         -2.98956        1.23177        2.33664
O         -4.45860        0.17317        1.18980
C         -4.23395        3.10958       -0.11389
N         -2.87563        3.26754       -0.56581
H         -2.33072        4.00218       -0.14939
H         -4.26308        2.96251        0.96701
H         -4.82773        3.99001       -0.36891
H         -4.65472        2.23649       -0.60955
C          0.68539        1.72525       -3.48875
O          1.66625        2.40530       -3.26139
C          0.63706        0.63767       -4.53601
H          1.60146        0.57310       -5.03124
H          0.40444       -0.31890       -4.07215
H         -0.13110        0.86159       -5.27336
