47
-79.8733625385 converged=true
H          0.48042       -2.06266        2.74898
H         -1.47182        0.99736        3.28088
H          1.39890        2.22021        1.78251
H          1.23312        1.87445       -3.10822
H          0.23065       -1.18444        4.27324
H          1.24911        2.94982       -0.57377
H         -0.12442       -1.61775        0.67222
H         -0.14296        0.77835       -3.30473
H         -5.31541       -0.73761        2.59537
H         -0.26028       -0.89768       -1.63867
H         -4.24764       -2.96993        2.43605
H         -1.03828        4.64336       -3.09080
H         -3.90010        1.25316        3.00889
N         -0.26482        3.97854       -3.20861
C         -0.63478        2.76571       -2.71345
C         -1.97903        2.80795       -2.16153
C          0.26991        1.58203       -2.68623
O         -2.62510        3.86209       -2.19998
C          0.44757        1.09158       -1.26906
C          0.93823        1.95448       -0.29404
C          1.02423        1.55452        1.02114
C          0.61256        0.27593        1.39947
C          0.16095       -0.60758        0.42685
C          0.08504       -0.19393       -0.89295
O          0.68062       -0.00161        2.73462
C          0.03412       -1.16926        3.19463
C         -1.46304       -1.10795        2.97429
C         -2.08518        0.13210        3.07977
C         -3.45256        0.27391        2.93190
C         -4.24693       -0.83900        2.70182
C         -3.65770       -2.08293        2.61131
C         -2.27609       -2.21800        2.72889
N         -1.75810       -3.55215        2.55835
O         -0.67669       -3.68365        2.01441
O         -2.45303       -4.47060        2.93867
C         -3.76029        1.61940       -0.98097
N         -2.48731        1.65576       -1.65160
H         -1.87726        0.86274       -1.53487
H         -3.63443        1.42773        0.08840
H         -4.23401        2.58949       -1.12319
H         -4.39289        0.83954       -1.40891
C          0.90069        4.41343       -3.78947
O          1.87126        3.70660       -3.96967
C          0.83122        5.87100       -4.17506
H          1.77602        6.17019       -4.61915
H          0.02981        6.02928       -4.89397
H          0.63474        6.48403       -3.29777
