47
-79.8733450576 converged=true
H         -0.25064       -2.57351        3.55227
H         -0.58513        0.45713        4.64978
H          0.40544        0.66739        1.88237
H          1.38890        2.00217       -2.80937
H          0.74202       -1.09974        3.43193
H          0.50618        2.15663       -0.04201
H          0.31519       -2.70852       -0.73450
H          0.18412        0.97203       -3.58394
H         -4.45789        1.53143        3.20419
H          0.41459       -1.19483       -2.68197
H         -4.36990       -0.35940        1.60413
H         -1.15469        4.49704       -2.53115
H         -2.56649        1.90496        4.75083
N         -0.30916        3.93976       -2.70567
C         -0.59603        2.62340       -2.49639
C         -1.97619        2.44784       -2.07758
C          0.40841        1.53848       -2.67288
O         -2.70565        3.44193       -1.95314
C          0.43682        0.59408       -1.49882
C          0.45993        1.08954       -0.20240
C          0.40062        0.24365        0.89059
C          0.32252       -1.12951        0.69433
C          0.35861       -1.63962       -0.60228
C          0.41141       -0.78551       -1.68234
O          0.18059       -2.06206        1.68429
C         -0.10957       -1.63977        2.99614
C         -1.35458       -0.79186        3.09915
C         -1.42197        0.27021        3.99287
C         -2.53548        1.08970        4.04461
C         -3.59807        0.88083        3.17990
C         -3.55228       -0.16900        2.28255
C         -2.44675       -1.00833        2.26248
N         -2.48752       -2.13137        1.34973
O         -2.37096       -3.23799        1.82197
O         -2.69965       -1.87665        0.18159
C         -3.75494        0.97119       -1.33697
N         -2.43392        1.18677       -1.87436
H         -1.77880        0.42459       -1.80796
H         -3.95340       -0.09621       -1.31543
H         -3.83642        1.38101       -0.32519
H         -4.48560        1.48075       -1.96596
C          0.84986        4.57802       -3.05921
O          1.90314        4.00734       -3.26723
C          0.66704        6.07400       -3.15921
H          0.33452        6.47780       -2.20507
H          1.61174        6.53331       -3.43489
H         -0.08096        6.30888       -3.91378
