47
-79.8743460109 converged=true
H          0.34349       -1.51750        4.42581
H         -0.63146       -3.40580        3.39120
H          0.80193        1.99431        3.20760
H         -0.79294        4.20054       -0.62463
H         -0.32190        0.12457        4.22225
H          0.30057        3.71940        1.53617
H          0.46596       -1.01679        0.20365
H          0.78152        3.88998       -1.37077
H         -4.02725       -3.06572        0.82336
H         -0.01421        0.71925       -1.48433
H         -3.91117       -0.60160        1.03080
H         -0.90066        2.63716       -4.26747
H         -2.39249       -4.46526        2.04542
N         -0.24363        3.00099       -3.56491
C         -0.83488        2.96171       -2.34232
C         -2.18929        2.42957       -2.42703
C         -0.17384        3.43157       -1.09953
O         -2.64772        2.11236       -3.53278
C          0.09716        2.33981       -0.08904
C          0.33774        2.68247        1.23691
C          0.62184        1.71579        2.18023
C          0.65655        0.37600        1.80839
C          0.42886        0.02527        0.48322
C          0.16085        1.00264       -0.45681
O          0.92915       -0.62158        2.72560
C         -0.08225       -0.81184        3.71025
C         -1.29066       -1.41307        3.03419
C         -1.36746       -2.79336        2.89274
C         -2.35124       -3.38965        2.12356
C         -3.26919       -2.60768        1.43912
C         -3.20812       -1.23423        1.55057
C         -2.23905       -0.63908        2.35502
N         -2.28841        0.78929        2.46355
O         -2.63496        1.41483        1.47088
O         -2.02607        1.30643        3.53375
C         -4.24279        1.80554       -1.29966
N         -2.90424        2.34047       -1.28485
H         -2.45615        2.42352       -0.38626
H         -4.94591        2.55264       -1.67598
H         -4.29203        0.93642       -1.95902
H         -4.51752        1.52908       -0.28667
C          0.98821        3.45110       -3.97288
O          1.81627        3.92617       -3.22278
C          1.18774        3.28388       -5.45949
H          0.42996        3.84326       -6.00440
H          2.17233        3.65127       -5.73323
H          1.10636        2.23390       -5.73340
