47
-79.8737522159 converged=true
H          0.49269       -2.10022        2.47755
H         -1.67210        0.76045        2.88803
H         -0.58894       -1.50232        0.56685
H          1.02706        1.77472       -3.25340
H          0.42280       -1.36407        4.07769
H         -0.75581       -0.73676       -1.72727
H          1.40301        2.12510        1.63746
H         -0.52483        0.93386       -3.38184
H         -5.34212       -1.42172        2.95728
H          1.21458        2.90644       -0.69930
H         -4.05373       -3.53226        3.17240
H         -0.74355        4.88690       -3.23274
H         -4.12231        0.72949        2.83296
N         -0.09182        4.10373       -3.35810
C         -0.63982        2.98214       -2.81188
C         -1.93690        3.26218       -2.22167
C          0.04465        1.65909       -2.79089
O         -2.40412        4.40617       -2.27885
C          0.19795        1.14968       -1.37806
C         -0.28923       -0.09117       -0.99541
C         -0.18822       -0.53337        0.31411
C          0.41433        0.27333        1.27106
C          0.92571        1.51485        0.88735
C          0.81615        1.94391       -0.41621
O          0.54707       -0.03693        2.59268
C          0.05381       -1.27365        3.05030
C         -1.45369       -1.35281        3.05457
C         -2.19620       -0.18121        2.94471
C         -3.57826       -0.19937        2.91235
C         -4.26418       -1.40264        2.98478
C         -3.55376       -2.57805        3.10310
C         -2.16090       -2.55798        3.14584
N         -1.50029       -3.82634        3.29300
O         -2.13598       -4.82434        3.01872
O         -0.34861       -3.83432        3.68602
C         -3.84784        2.41915       -0.95192
N         -2.60745        2.22439       -1.65536
H         -2.12826        1.34827       -1.52394
H         -4.18120        3.43640       -1.15146
H         -4.59996        1.71246       -1.30669
H         -3.71420        2.28735        0.12528
C          1.10620        4.31556       -3.99019
O          1.92941        3.44066       -4.17808
C          1.30911        5.74513       -4.42972
H          1.47093        5.76222       -5.50586
H          0.46618        6.38116       -4.17832
H          2.21163        6.13279       -3.96093
