47
-79.8750369447 converged=true
H         -3.48789       -0.38796        2.49036
H         -1.49296       -2.73629        0.61740
H         -2.84885       -0.40536       -1.84580
H          1.11201        3.20157       -0.58364
H         -4.26968       -1.89087        2.00211
H         -1.20808        1.20229       -2.75462
H         -1.35406        0.32028        2.09226
H          1.39927        2.12515       -1.95695
H          0.75838       -4.21563        3.93087
H          0.24006        1.91337        1.19557
H         -0.79393       -3.04784        5.47512
H         -0.20580        4.52353       -4.06994
H          0.37987       -4.05470        1.48819
N          0.37828        3.80293       -3.62982
C         -0.01253        3.63774       -2.33563
C         -1.12645        4.50734       -2.00118
C          0.62568        2.66562       -1.40616
O         -1.57542        5.28438       -2.85226
C         -0.37246        1.68280       -0.84319
C         -1.24994        1.01383       -1.69245
C         -2.16495        0.11418       -1.19368
C         -2.22794       -0.14819        0.17640
C         -1.34921        0.50675        1.02988
C         -0.43786        1.41552        0.51592
O         -3.17065       -1.05603        0.56061
C         -3.33645       -1.32119        1.93358
C         -2.21481       -2.13617        2.52997
C         -1.33650       -2.80390        1.68291
C         -0.27938       -3.54671        2.17508
C         -0.06620       -3.63919        3.54243
C         -0.92462       -2.99182        4.40506
C         -1.99594       -2.25099        3.90865
N         -2.85177       -1.62354        4.87733
O         -2.41804       -1.48523        6.00376
O         -3.96127       -1.26743        4.52415
C         -2.76092        5.20622       -0.32318
N         -1.60654        4.44924       -0.73198
H         -1.28789        3.71359       -0.12232
H         -2.54391        5.76601        0.58814
H         -2.99922        5.89956       -1.12818
H         -3.61839        4.55241       -0.14500
C          1.35429        3.19154       -4.37465
O          2.09272        2.32790       -3.94394
C          1.40108        3.71634       -5.78910
H          2.18336        3.20031       -6.33787
H          0.44563        3.55216       -6.28335
H          1.60887        4.78446       -5.78490
