47
-79.8746165921 converged=true
H          0.61314       -1.91285        3.63576
H         -0.94137       -1.89862        0.82384
H          1.98689       -0.02238       -0.05584
H         -1.41791        4.23806       -0.82078
H          0.04412       -0.26372        3.88861
H          1.46871        1.92703       -1.48363
H         -1.23909        1.04252        2.53861
H          0.29775        4.45415       -1.19512
H         -4.96738       -2.71544        1.98986
H         -1.73153        2.96237        1.14275
H         -4.39219       -2.08977        4.32187
H         -0.34273        3.26308       -4.50886
H         -3.20960       -2.62774        0.24826
N         -0.02945        3.73826       -3.65466
C         -0.74061        3.26937       -2.59191
C         -1.68741        2.24556       -2.99693
C         -0.52090        3.73144       -1.19268
O         -1.77223        1.92260       -4.18787
C         -0.18195        2.57394       -0.28485
C          0.87478        1.72596       -0.60489
C          1.17005        0.63870        0.18630
C          0.41096        0.36316        1.32563
C         -0.63361        1.21454        1.66277
C         -0.91840        2.30755        0.85977
O          0.76844       -0.75728        2.01636
C          0.04489       -1.09746        3.17530
C         -1.35949       -1.57030        2.88752
C         -1.70137       -1.93547        1.58911
C         -2.98123       -2.34566        1.26483
C         -3.96708       -2.39847        2.23889
C         -3.65369       -2.05091        3.53552
C         -2.36078       -1.64691        3.86352
N         -2.11494       -1.32349        5.24257
O         -3.07833       -1.08022        5.94131
O         -0.96352       -1.31525        5.63654
C         -3.37062        0.61027       -2.31278
N         -2.47905        1.70481       -2.03295
H         -2.28136        1.91129       -1.06716
H         -3.40868        0.48710       -3.39403
H         -3.01181       -0.31622       -1.85606
H         -4.37064        0.82948       -1.93481
C          0.97128        4.67304       -3.74390
O          1.41063        5.28608       -2.79197
C          1.45984        4.84681       -5.16135
H          0.64310        5.17622       -5.80051
H          2.25200        5.58946       -5.17939
H          1.84137        3.90333       -5.54655
