47
-79.8749360030 converged=true
H         -2.96473       -0.70080        3.99181
H          0.01817       -1.35386        2.91833
H          0.12974        2.28480        3.27624
H          1.48346        3.83509       -0.91696
H         -3.34457       -0.21183        2.34073
H          1.22850        3.44516        1.39945
H         -1.98759       -0.18019        0.49988
H          1.53817        2.30318       -1.80317
H         -0.48439       -5.23978        1.22147
H         -0.91102        0.97811       -1.34715
H         -2.93861       -4.87518        1.17521
H         -0.95549        3.57707       -4.03173
H          0.98432       -3.45721        2.11610
N         -0.17778        3.10093       -3.56001
C         -0.13339        3.49778       -2.25763
C         -1.19947        4.43406       -1.95016
C          0.87698        3.00009       -1.28353
O         -1.97794        4.79283       -2.84182
C          0.22535        2.30105       -0.11411
C          0.51393        2.65868        1.19890
C         -0.09148        2.01229        2.25642
C         -1.00845        0.98700        2.02688
C         -1.29664        0.61897        0.71693
C         -0.68376        1.27618       -0.33455
O         -1.54692        0.41729        3.14332
C         -2.53758       -0.57190        2.99127
C         -2.00085       -1.89688        2.50736
C         -0.62915       -2.12606        2.53238
C         -0.08451       -3.31323        2.07903
C         -0.90496       -4.31329        1.57896
C         -2.26888       -4.11578        1.54941
C         -2.81822       -2.92242        2.01508
N         -4.25019       -2.80851        1.96822
O         -4.85182       -3.58114        1.24977
O         -4.78444       -1.95344        2.65033
C         -2.33656        5.77421       -0.25151
N         -1.26814        4.90898       -0.67901
H         -0.69821        4.48230        0.03333
H         -2.88679        6.07840       -1.14050
H         -3.01437        5.25686        0.43218
H         -1.93241        6.65670        0.24730
C          0.59752        2.22496       -4.27563
O          1.53365        1.60920       -3.80493
C          0.14950        2.11420       -5.71284
H         -0.88068        1.76682       -5.76017
H          0.20916        3.08574       -6.19919
H          0.79054        1.41055       -6.23570
