47
-79.8699895689 converged=true
H          0.59236       -0.96680        4.17379
H         -0.57133       -2.75671        5.04772
H          0.90567        1.71374        2.57003
H          1.43965        3.92649       -1.54140
H         -0.41833        0.26957        3.37541
H          1.02337        3.38408        0.79389
H          0.83415       -1.39649       -0.35769
H          1.60574        2.67292       -2.73822
H         -3.99011       -4.43251        3.11374
H          0.97777        0.29548       -2.15183
H         -3.84969       -2.66557        1.37782
H         -1.11283        2.15863       -1.02600
H         -2.35159       -4.44466        4.96707
N         -1.43092        2.76200       -1.78684
C         -0.37544        3.32520       -2.43805
C         -0.32667        4.22944       -3.59146
C          0.98690        2.99310       -1.89389
O          0.77161        4.61003       -3.99760
C          0.98662        1.96230       -0.80522
C          0.97631        2.33673        0.53287
C          0.90491        1.39246        1.53988
C          0.82092        0.04331        1.21582
C          0.87668       -0.34462       -0.12200
C          0.95692        0.60565       -1.11756
O          0.71246       -0.96379        2.13268
C         -0.05021       -0.75793        3.31167
C         -1.21229       -1.72332        3.29881
C         -1.30317       -2.72452        4.25462
C         -2.30226       -3.68274        4.20443
C         -3.22150       -3.67755        3.16698
C         -3.14809       -2.69825        2.19757
C         -2.16418       -1.71589        2.27145
N         -2.18732       -0.70635        1.26015
O         -2.55329       -1.03012        0.13871
O         -1.88075        0.44133        1.56269
C         -1.51066        5.49262       -5.29979
N         -1.48679        4.60627       -4.16821
H         -2.37370        4.28067       -3.78644
H         -0.48139        5.73703       -5.56025
H         -1.99847        5.01045       -6.14950
H         -2.05288        6.40887       -5.05616
C         -2.80392        2.79732       -1.89251
O         -3.42576        3.44656       -2.71672
C         -3.46689        1.93019       -0.86358
H         -3.11203        2.17198        0.13703
H         -4.54290        2.07033       -0.91420
H         -3.23770        0.88105       -1.05372
