47
-79.8702313849 converged=true
H         -1.91268       -0.82588        4.73797
H          0.00687       -2.20033        4.54462
H         -3.60969        1.30630        2.14898
H         -1.57507        1.16066       -2.74846
H         -3.10147       -0.66937        3.41814
H         -3.82992        1.93965       -0.20793
H          0.54122        0.51384        1.55958
H         -2.90648        2.26523       -2.36226
H          0.80433       -4.45361        1.00489
H          0.32791        1.17725       -0.81418
H         -1.13632       -3.36754       -0.09553
H          0.54107        3.99749       -3.34467
H          1.34654       -3.87682        3.34936
N          0.07686        3.08258       -3.30022
C         -0.97451        3.15834       -2.43733
C         -1.07494        4.48000       -1.84426
C         -1.86900        2.00866       -2.12713
O         -0.28179        5.36739       -2.18267
C         -1.75946        1.61652       -0.67323
C         -2.85967        1.65380        0.17470
C         -2.74441        1.28840        1.50329
C         -1.51588        0.87066        2.00043
C         -0.40676        0.84212        1.16112
C         -0.53046        1.21893       -0.16098
O         -1.36303        0.48337        3.31848
C         -2.03576       -0.72576        3.65809
C         -1.35822       -1.87068        2.94342
C         -0.25642       -2.47765        3.53510
C          0.50570       -3.41252        2.85704
C          0.20290       -3.73873        1.54408
C         -0.87612       -3.13935        0.92700
C         -1.66009       -2.22554        1.62483
N         -2.79724       -1.69439        0.91724
O         -2.66694       -1.49150       -0.27162
O         -3.82687       -1.51374        1.53877
C         -2.21065        5.94094       -0.24800
N         -2.07970        4.69394       -0.95544
H         -2.60278        3.90544       -0.61137
H         -1.52202        6.65026       -0.70430
H         -3.23146        6.31767       -0.33189
H         -1.95880        5.82387        0.80917
C          0.56916        2.05124       -4.05862
O          0.10001        0.93124       -4.06725
C          1.76605        2.47340       -4.87735
H          1.48805        3.27485       -5.55888
H          2.56033        2.83315       -4.22638
H          2.12662        1.62419       -5.45032
