47
-79.8754647858 converged=true
H          0.40093       -1.56869        4.37810
H         -0.78057       -3.37979        3.42492
H          1.05397        1.88877        3.10492
H         -0.98622        4.03417       -0.56950
H         -0.14351        0.11943        4.19155
H          0.49309        3.63289        1.47064
H          0.35831       -1.10611        0.14704
H          0.62537        3.95489       -1.29573
H         -4.31348       -2.78683        1.09922
H         -0.16816        0.64549       -1.50685
H         -3.97662       -0.33507        1.25546
H         -0.85367        2.73579       -4.31084
H         -2.71188       -4.30343        2.22059
N         -0.25655        3.12094       -3.56744
C         -0.86060        2.92380       -2.36623
C         -2.13846        2.24020       -2.52594
C         -0.27524        3.37397       -1.07985
O         -2.52861        1.95167       -3.66585
C          0.09242        2.26130       -0.12342
C          0.46448        2.59496        1.17491
C          0.78116        1.61828        2.09605
C          0.71426        0.27724        1.73136
C          0.38605       -0.06347        0.42563
C          0.08937        0.92447       -0.49564
O          0.96911       -0.73110        2.64295
C         -0.00409       -0.83630        3.67747
C         -1.29370       -1.34290        3.07704
C         -1.49504       -2.71359        2.96567
C         -2.57633       -3.23424        2.27682
C         -3.47513       -2.38635        1.64755
C         -3.29094       -1.02174        1.72825
C         -2.21732       -0.50120        2.44665
N         -2.13610        0.92892        2.51837
O         -2.46406        1.55716        1.52149
O         -1.78656        1.44403        3.56357
C         -4.10314        1.25712       -1.48771
N         -2.85851        1.97558       -1.41336
H         -2.46185        2.10147       -0.49408
H         -3.97020        0.20832       -1.20623
H         -4.83446        1.71683       -0.82341
H         -4.45646        1.30237       -2.51698
C          0.92033        3.73956       -3.91179
O          1.67384        4.25365       -3.11058
C          1.16196        3.70522       -5.40108
H          2.10268        4.19995       -5.62379
H          1.20454        2.67564       -5.75062
H          0.35459        4.21472       -5.92332
