47
-79.8697452125 converged=true
H         -0.08847       -0.60146        4.08015
H          1.14450       -2.42247        3.14756
H          0.65720        0.01897        1.96165
H          0.06667        4.66780       -0.57074
H         -1.67491       -1.29869        4.49947
H          1.39212        1.51900        0.19548
H         -3.04792        2.13152        2.21389
H          1.12499        3.36761       -1.15210
H         -0.36321       -4.50751       -0.26129
H         -2.29449        3.65489        0.43062
H         -2.53841       -3.34139        0.00375
H         -1.30477        2.36307       -3.65979
H          1.45829       -4.06342        1.34608
N         -0.55799        2.37699       -2.95636
C         -0.75300        3.43315       -2.11293
C         -1.91513        4.20643       -2.50181
C          0.09494        3.62882       -0.90627
O         -2.55457        3.88747       -3.51204
C         -0.37979        2.70933        0.20290
C          0.42422        1.67284        0.64665
C          0.00012        0.81395        1.64735
C         -1.25347        0.98457        2.21763
C         -2.07220        2.02059        1.76886
C         -1.63927        2.86800        0.77288
O         -1.78792        0.20469        3.20610
C         -1.06322       -0.90799        3.67879
C         -0.87717       -1.97428        2.62698
C          0.33315       -2.63677        2.46726
C          0.51139       -3.55604        1.44838
C         -0.51034       -3.80861        0.54691
C         -1.72316       -3.16086        0.68780
C         -1.90594       -2.27076        1.73637
N         -3.22140       -1.68349        1.89334
O         -3.71847       -1.17802        0.91308
O         -3.75136       -1.80143        2.97387
C         -3.38690        6.11415       -2.06273
N         -2.26423        5.27551       -1.73583
H         -1.70316        5.52820       -0.94041
H         -3.85931        5.69077       -2.94776
H         -4.10692        6.13449       -1.24170
H         -3.06331        7.13525       -2.27881
C          0.45467        1.46160       -3.04838
O          1.42770        1.44410       -2.32015
C          0.22308        0.47314       -4.16734
H          0.14733        0.99391       -5.11972
H          1.05183       -0.22770       -4.20604
H         -0.70281       -0.07191       -3.99557
