47
-79.8756867127 converged=true
H          1.41633       -0.01994        2.41197
H          0.25664       -2.97556        4.16064
H         -2.65197       -0.40945        2.83039
H         -3.73611        1.90406       -1.05532
H          1.36434       -0.92161        3.95250
H         -3.86316        0.62247        0.94287
H          0.53031        2.38371        2.31850
H         -3.62363        3.52717       -0.38082
H         -2.01405       -4.67464        0.96820
H         -0.69243        3.43957        0.45701
H         -1.58364       -2.64704       -0.38780
H         -1.20266        1.32349       -1.51713
H         -1.04856       -4.84164        3.24145
N         -1.14719        2.17758       -2.08854
C         -2.10795        3.08191       -1.75544
C         -2.42641        4.40375       -2.32073
C         -3.03359        2.64745       -0.66153
O         -3.37371        5.03753       -1.85290
C         -2.33923        2.07185        0.54049
C         -2.90356        1.01519        1.24410
C         -2.23007        0.43121        2.30000
C         -0.97190        0.89918        2.66122
C         -0.43429        2.00679        2.01453
C         -1.11887        2.58837        0.96734
O         -0.25033        0.23625        3.63723
C          0.77798       -0.59075        3.09366
C          0.13862       -1.77360        2.40860
C         -0.12623       -2.91624        3.15305
C         -0.87367       -3.96231        2.64086
C         -1.41433       -3.87125        1.36657
C         -1.17897       -2.74524        0.60798
C         -0.39287       -1.70761        1.11163
N         -0.15599       -0.61584        0.23407
O         -1.04587       -0.32455       -0.57266
O          0.92142       -0.02949        0.26424
C         -1.94123        6.15004       -3.94127
N         -1.68132        4.86930       -3.34128
H         -0.88058        4.33199       -3.67314
H         -2.80399        6.59127       -3.44357
H         -1.07680        6.80705       -3.82519
H         -2.15385        6.03270       -5.00583
C         -0.07892        2.14943       -2.95812
O          0.23112        3.04970       -3.72076
C          0.69298        0.86529       -2.87224
H          1.14278        0.76829       -1.88383
H          0.03504        0.01393       -3.03361
H          1.47938        0.86823       -3.62141
