47
-79.8700346445 converged=true
H          1.02475       -2.43204        3.13640
H         -1.90677       -1.87032        4.07866
H         -0.79539        0.83617        2.87245
H         -0.53934        4.71613        0.06991
H          0.27685       -1.10786        4.05973
H         -1.40532        2.80042        1.54669
H          2.90058        0.55514        0.75113
H          0.74884        4.31089       -1.08996
H         -4.22144       -1.79828        0.49229
H          2.29567        2.55693       -0.56299
H         -2.13956       -1.50437       -0.82075
H          0.18569        2.01491       -1.93791
H         -4.07775       -2.03683        2.95218
N         -0.73501        2.34333       -2.22235
C         -1.15291        3.38971       -1.44117
C         -2.47654        3.99165       -1.29259
C         -0.09148        3.91059       -0.51455
O         -2.65698        4.84524       -0.42120
C          0.38137        2.79517        0.38030
C         -0.46126        2.30777        1.36971
C         -0.11792        1.19478        2.11296
C          1.08343        0.53880        1.85970
C          1.96379        1.06315        0.91532
C          1.60886        2.17430        0.17934
O          1.47952       -0.62660        2.45290
C          0.51604       -1.46477        3.04703
C         -0.77560       -1.64285        2.28455
C         -1.95594       -1.81287        3.00110
C         -3.18224       -1.89505        2.36717
C         -3.26496       -1.76608        0.98913
C         -2.10973       -1.59926        0.25411
C         -0.87365       -1.57049        0.89319
N          0.28347       -1.49540        0.04323
O          1.23627       -2.19485        0.30647
O          0.20311       -0.76665       -0.93596
C         -4.78880        4.13649       -2.03784
N         -3.46836        3.57169       -2.10733
H         -3.26339        2.90958       -2.85395
H         -5.03613        4.65179       -2.96877
H         -5.52776        3.35157       -1.86332
H         -4.81002        4.84815       -1.21320
C         -1.23931        1.62846       -3.27958
O         -2.33467        1.80493       -3.78847
C         -0.26754        0.59135       -3.77100
H         -0.72431        0.02579       -4.57793
H          0.63860        1.06822       -4.14044
H          0.00227       -0.08054       -2.95841
