47
-79.8699934000 converged=true
H          0.92704       -1.57279        1.55664
H         -0.04035       -3.68920        4.12098
H         -1.54430        1.69000        2.79894
H          0.04580        4.98244       -0.32233
H          1.18719       -1.92547        3.28736
H         -1.47774        3.58605        1.21523
H          2.05949        0.15299        1.09558
H          1.29634        4.15344       -1.20972
H         -4.04006       -4.49912        2.86307
H          2.10742        2.01196       -0.48372
H         -3.88230       -2.63796        1.23044
H         -0.84281        1.94635       -1.26924
H         -2.08818       -5.03204        4.28672
N         -1.16480        2.54148       -2.03464
C         -0.66637        3.80406       -1.91488
C         -0.88972        5.00677       -2.72337
C          0.29639        4.02082       -0.78047
O         -0.31334        6.04807       -2.40743
C          0.30759        2.91918        0.23693
C         -0.70668        2.83053        1.18711
C         -0.75048        1.77588        2.07349
C          0.22382        0.77957        2.02820
C          1.27112        0.88935        1.12120
C          1.29889        1.94604        0.23007
O          0.08400       -0.24354        2.92301
C          0.46723       -1.55766        2.54835
C         -0.76425       -2.43282        2.56063
C         -0.87585       -3.47224        3.47250
C         -2.03462       -4.22455        3.57282
C         -3.12921       -3.92790        2.77579
C         -3.04838       -2.89299        1.86674
C         -1.86960       -2.16204        1.74407
N         -1.84850       -1.14203        0.74329
O         -0.80734       -0.93333        0.13143
O         -2.89246       -0.54640        0.51418
C         -1.98631        6.06947       -4.61642
N         -1.73116        4.93161       -3.77553
H         -2.15086        4.03786       -4.02749
H         -1.63860        5.88022       -5.63454
H         -3.05607        6.28585       -4.64433
H         -1.45076        6.92335       -4.20288
C         -1.98276        1.87012       -2.91651
O         -2.48118        2.35727       -3.91727
C         -2.20134        0.44477       -2.50349
H         -1.25487       -0.05838       -2.31316
H         -2.78864        0.41084       -1.58491
H         -2.74340       -0.07789       -3.28645
