47
-79.8731436528 converged=true
H         -0.83335       -1.79120        0.72964
H         -0.63169       -4.14252        3.19536
H         -0.34218        1.87659        2.86492
H          0.02021        4.71523       -0.81253
H          0.36659       -2.52177        1.83489
H         -0.11517        3.82480        1.37167
H          0.64261       -0.71920       -0.38327
H          1.42437        4.02005       -1.62262
H         -4.39450       -3.46788        5.10044
H          0.84510        1.21088       -1.86271
H         -4.59612       -1.30650        3.89683
H         -0.66822        3.47915       -4.47318
H         -2.40889       -4.89016        4.71619
N          0.06547        3.74738       -3.80387
C         -0.40988        3.55645       -2.54326
C         -1.77000        3.02943       -2.57482
C          0.39428        3.81772       -1.31820
O         -2.30623        2.81938       -3.67117
C          0.34852        2.65104       -0.36358
C          0.04431        2.82921        0.98239
C         -0.08269        1.74566        1.82610
C          0.08779        0.45246        1.33622
C          0.45509        0.26864        0.00857
C          0.57733        1.36232       -0.82738
O         -0.11084       -0.55564        2.23502
C         -0.48912       -1.83843        1.76869
C         -1.61205       -2.33142        2.64554
C         -1.51060       -3.53116        3.33440
C         -2.50952       -3.94873        4.19826
C         -3.62346       -3.15323        4.41487
C         -3.74154       -1.94934        3.74869
C         -2.75252       -1.55113        2.85656
N         -2.96495       -0.31101        2.15902
O         -3.50947        0.58756        2.76945
O         -2.63562       -0.24280        0.98675
C         -3.67564        2.16597       -1.30814
N         -2.40019        2.83132       -1.39521
H         -1.87639        2.91542       -0.53833
H         -3.56682        1.20916       -0.79383
H         -4.38695        2.78691       -0.76079
H         -4.03844        2.00222       -2.32112
C          1.28066        4.18242       -4.26392
O          2.19791        4.50825       -3.53407
C          1.37493        4.21803       -5.77044
H          2.19528        3.57699       -6.08783
H          0.45582        3.89738       -6.25065
H          1.61579        5.23211       -6.08354
