47
-79.8742371017 converged=true
H         -0.94760       -1.14823        4.47527
H         -0.90912       -3.26478        3.46482
H          1.12808       -0.67083        0.78705
H          0.09296        4.53069       -0.70414
H         -1.67422        0.27227        3.67390
H          1.13958        0.95857       -1.07685
H         -0.30268        2.36212        3.42256
H          1.23107        3.50457       -1.61333
H         -2.32924       -3.90578       -0.51136
H         -0.25706        3.99148        1.58624
H         -2.69107       -1.46269       -0.75048
H         -1.47929        2.28634       -3.62270
H         -1.45959       -4.79772        1.62701
N         -0.57496        2.47862       -3.17238
C         -0.80143        3.08313       -1.97928
C         -2.23324        3.22082       -1.72772
C          0.28977        3.51666       -1.06212
O         -3.03188        2.93316       -2.62456
C          0.38780        2.56758        0.11117
C          0.81643        1.26184       -0.09332
C          0.81445        0.35028        0.94443
C          0.37627        0.73737        2.20633
C          0.00922        2.05789        2.43479
C          0.01979        2.96371        1.39149
O          0.30685       -0.19709        3.22375
C         -1.02476       -0.59802        3.53561
C         -1.53369       -1.50503        2.44127
C         -1.32326       -2.87484        2.54734
C         -1.62156       -3.73741        1.50733
C         -2.10982       -3.23994        0.30856
C         -2.31344       -1.88291        0.16948
C         -2.04474       -1.02181        1.23113
N         -2.33378        0.36377        1.00412
O         -2.12127        0.80309       -0.11455
O         -2.80738        1.02539        1.91578
C         -3.99029        3.73384       -0.12172
N         -2.60668        3.72859       -0.52804
H         -1.92976        3.70009        0.21790
H         -4.59834        3.54514       -1.00447
H         -4.18024        2.95747        0.62290
H         -4.24866        4.70545        0.30249
C          0.58124        2.12742       -3.82194
O          1.69481        2.30307       -3.36786
C          0.30619        1.49238       -5.16365
H          1.24744        1.23055       -5.63810
H         -0.29630        0.59519       -5.03694
H         -0.23762        2.18651       -5.80123
