47
-79.8734176179 converged=true
H          0.72266       -1.30694        3.58287
H         -0.51142       -3.32951        3.37823
H          0.24301        2.82707        2.03342
H          1.38452        1.74149       -2.72652
H         -0.25341       -0.45827        4.80822
H          0.39732        3.27535       -0.39326
H          0.14832       -1.36988        1.23908
H          0.08789        0.57164       -2.97138
H         -4.46630       -3.23200        1.76824
H          0.27037       -0.92315       -1.14567
H         -4.49530       -0.76587        2.02804
H         -0.89930        4.28467       -3.75471
H         -2.47569       -4.50721        2.49006
N         -0.11279        3.63986       -3.60774
C         -0.53089        2.60075       -2.83225
C         -1.93083        2.74730       -2.46572
C          0.36503        1.48253       -2.42762
O         -2.56539        3.72711       -2.87707
C          0.32205        1.20733       -0.94567
C          0.33675        2.25971       -0.03259
C          0.25509        2.01946        1.31969
C          0.16662        0.71205        1.79991
C          0.19362       -0.34609        0.90242
C          0.26547       -0.08938       -0.45766
O          0.03571        0.59832        3.15531
C         -0.15848       -0.66866        3.73682
C         -1.39273       -1.38948        3.25098
C         -1.39301       -2.77127        3.09903
C         -2.49622       -3.43296        2.59027
C         -3.61472       -2.72005        2.18766
C         -3.63585       -1.34582        2.32846
C         -2.54198       -0.69433        2.88278
N         -2.65807        0.73413        3.08391
O         -2.98497        1.39505        2.11853
O         -2.48604        1.15484        4.20414
C         -3.81703        1.90079       -1.16140
N         -2.49368        1.76569       -1.71760
H         -1.89221        1.07318       -1.30043
H         -4.42530        1.03382       -1.42702
H         -3.76897        1.98976       -0.07459
H         -4.26268        2.79921       -1.58453
C          1.10609        3.93788       -4.15771
O          2.09270        3.23675       -4.04088
C          1.08001        5.23727       -4.92633
H          0.35270        5.17985       -5.73366
H          0.80149        6.05757       -4.26786
H          2.06484        5.42846       -5.34221
