47
-79.8737504217 converged=true
H         -0.46981       -2.88632        1.84067
H         -0.22012       -0.69985        4.77802
H          1.59136        1.09924        1.52463
H          1.05250        1.82235       -3.23861
H          0.31606       -2.62709        3.41014
H          1.30676        2.31950       -0.60560
H         -0.32979       -2.30837       -0.19431
H         -0.38359        0.84697       -3.61446
H         -3.94846        1.31488        4.23982
H         -0.62834       -1.10149       -2.27326
H         -4.29567        0.05682        2.13449
H         -1.05271        4.60381       -2.39119
H         -1.90208        0.90643        5.57271
N         -0.28606        3.95768       -2.61888
C         -0.76319        2.68484       -2.60679
C         -2.17749        2.65664       -2.25663
C          0.08411        1.48847       -2.86232
O         -2.77346        3.72389       -2.06179
C          0.28694        0.71140       -1.58016
C          0.92957        1.31318       -0.50381
C          1.09321        0.63766        0.68659
C          0.62096       -0.66629        0.82916
C          0.00896       -1.28560       -0.25409
C         -0.15899       -0.59428       -1.44125
O          0.84972       -1.27033        2.03934
C         -0.15649       -2.12833        2.56045
C         -1.30899       -1.27763        3.04359
C         -1.12744       -0.54723        4.21351
C         -2.06785        0.36628        4.65323
C         -3.21535        0.59629        3.90878
C         -3.41340       -0.10114        2.73624
C         -2.47599       -1.04087        2.31014
N         -2.78614       -1.73944        1.09700
O         -2.43625       -2.90059        0.98232
O         -3.40849       -1.12643        0.24566
C         -4.17150        1.30624       -1.82843
N         -2.78399        1.45071       -2.19056
H         -2.23302        0.61045       -2.24018
H         -4.26949        0.59683       -1.00822
H         -4.54337        2.28512       -1.53072
H         -4.75205        0.94704       -2.68165
C          0.95769        4.46933       -2.89476
O          1.92251        3.78777       -3.17658
C          0.98303        5.97565       -2.80084
H          0.28721        6.40640       -3.51803
H          0.69176        6.29522       -1.80224
H          1.98624        6.33219       -3.01514
