47
-79.8700246926 converged=true
H          1.13740       -1.92802        3.14849
H         -2.08780       -1.77576        3.47556
H          2.68761        1.55128        1.33072
H         -1.56478        4.73189        0.02743
H         -0.03096       -0.94232        4.06066
H          1.81814        3.36463       -0.09804
H         -1.18993        1.04263        3.04242
H         -0.06462        4.66190       -0.94188
H         -3.48611       -1.53293       -0.55202
H         -2.06139        2.82172        1.59518
H         -1.19297       -0.99217       -1.29841
H          0.27323        2.70274       -2.03510
H         -3.90676       -1.98848        1.84787
N         -0.69450        2.43263       -2.18405
C         -1.53833        3.14506       -1.36912
C         -2.98204        3.04180       -1.18276
C         -0.82539        4.07190       -0.42594
O         -3.52737        3.70657       -0.29829
C         -0.19994        3.17433        0.61303
C          1.14976        2.84766        0.57636
C          1.65038        1.84295        1.37961
C          0.79645        1.13097        2.21790
C         -0.53108        1.53377        2.34347
C         -1.02091        2.54093        1.53801
O          1.32422        0.03006        2.83788
C          0.46463       -1.06496        3.08705
C         -0.59047       -1.30319        2.03211
C         -1.88449       -1.62448        2.42540
C         -2.91482       -1.73346        1.50799
C         -2.68223       -1.48420        0.16475
C         -1.40475       -1.17689       -0.25627
C         -0.36369       -1.11629        0.66486
N          0.95217       -0.88237        0.13528
O          1.03462       -0.15422       -0.84137
O          1.88771       -1.45834        0.64318
C         -5.10683        2.08371       -1.87829
N         -3.68506        2.24615       -2.01981
H         -3.18906        1.61593       -2.64741
H         -5.46285        2.82513       -1.16386
H         -5.59681        2.23529       -2.84141
H         -5.35276        1.08371       -1.51073
C         -0.80450        1.38288       -3.05919
O         -1.83952        0.78643       -3.31580
C          0.51639        1.02155       -3.68083
H          1.01646        1.89977       -4.08273
H          1.15021        0.56916       -2.91897
H          0.35232        0.30095       -4.47690
