47
-79.8688056264 converged=true
H          0.57090       -2.24736        3.12241
H         -1.67743       -2.56951        3.53413
H          2.84008        1.12221        1.08804
H          1.11263        1.67268       -3.25467
H          0.87932       -0.91463        4.26003
H          2.38616        1.84954       -1.22843
H         -0.30036       -1.75678        0.79504
H          0.13140        0.21582       -3.54920
H         -4.52755        0.32609        2.22413
H         -0.76976       -1.01082       -1.48811
H         -2.69139        1.96261        1.91542
H          0.00628        2.82241       -1.28574
H         -4.00284       -1.93191        3.09361
N         -0.86457        2.84779       -1.81282
C         -0.95083        1.80074       -2.69350
C         -2.11180        1.25444       -3.39207
C          0.32793        1.02814       -2.84732
O         -1.99830        0.21235       -4.04097
C          0.74685        0.49037       -1.50435
C          1.78530        1.06856       -0.78327
C          2.05716        0.66239        0.50645
C          1.27771       -0.32344        1.10858
C          0.28338       -0.95615        0.36755
C          0.02152       -0.54095       -0.92390
O          1.54865       -0.56953        2.42484
C          0.55812       -1.15357        3.23910
C         -0.85612       -0.66690        3.02906
C         -1.90280       -1.56714        3.20047
C         -3.21391       -1.21182        2.94085
C         -3.51081        0.05345        2.45789
C         -2.49241        0.96678        2.28141
C         -1.18119        0.62057        2.59480
N         -0.19962        1.66342        2.47677
O         -0.31657        2.42786        1.52807
O          0.64006        1.76480        3.34389
C         -4.44891        1.39895       -3.98542
N         -3.29600        1.89432       -3.27743
H         -3.33372        2.81221       -2.83908
H         -4.21775        1.26651       -5.04563
H         -4.74333        0.42385       -3.58937
H         -5.26759        2.10313       -3.87037
C         -1.64899        3.92292       -1.47970
O         -2.74469        4.16684       -1.95950
C         -0.99152        4.80398       -0.45373
H         -0.72947        4.21932        0.42584
H         -0.08119        5.24055       -0.86113
H         -1.67305        5.60288       -0.17667
