47
-79.8721034691 converged=true
H         -2.96675       -1.32079        1.43289
H         -0.64117       -2.00901        4.12066
H          1.02295       -1.10300        0.60998
H          0.83367        1.30557       -3.47068
H         -2.39759       -2.47060        2.67560
H          1.49111        0.36718       -1.32303
H         -2.80939       -2.02988       -1.01831
H         -0.69900        0.77841       -4.25480
H          1.12892        1.86605        4.39184
H         -2.34506       -0.56826       -2.95016
H         -0.20151        2.58201        2.44301
H         -1.10168        3.66094       -1.35064
H          0.87908       -0.44718        5.25049
N         -0.43647        3.06873       -1.83598
C         -0.97443        2.19186       -2.70856
C         -2.44092        2.18824       -2.90044
C         -0.21698        1.07190       -3.32248
O         -2.94459        1.83311       -3.95559
C         -0.40443        0.01188       -2.25243
C          0.55137       -0.15918       -1.25852
C          0.29240       -0.97832       -0.17566
C         -0.93098       -1.63009       -0.07467
C         -1.86926       -1.50547       -1.09407
C         -1.60521       -0.68786       -2.17318
O         -1.21519       -2.37895        1.05116
C         -2.08966       -1.70797        1.95706
C         -1.31777       -0.61867        2.66314
C         -0.55546       -0.99395        3.76298
C          0.31026       -0.11912        4.39426
C          0.45111        1.17537        3.91485
C         -0.28539        1.57644        2.82444
C         -1.17580        0.69990        2.19189
N         -1.91404        1.23741        1.11289
O         -1.50354        2.29406        0.59526
O         -2.94847        0.70053        0.72074
C         -4.59887        2.55377       -1.83542
N         -3.15696        2.63800       -1.83396
H         -2.72524        2.58435       -0.91519
H         -4.93706        1.72991       -1.20373
H         -5.01986        3.48793       -1.46095
H         -4.92874        2.38614       -2.85921
C          0.88849        3.26394       -1.46723
O          1.81985        2.66574       -1.95258
C          1.00892        4.32425       -0.40496
H          0.33490        4.09361        0.41666
H          2.03269        4.36303       -0.04505
H          0.74078        5.29601       -0.81634
