47
-79.8749859573 converged=true
H          0.43950       -0.65360        4.21108
H         -1.67390       -1.72281        3.58668
H          2.06691        1.05203        1.23507
H          0.71248        1.47269       -3.30200
H          1.03954        0.73693        3.27994
H          1.63814        1.86816       -1.03663
H         -0.29008       -2.41285        0.43940
H         -0.46124        0.16338       -3.57783
H         -4.59564        0.46453        1.36465
H         -0.70159       -1.61187       -1.84793
H         -2.93933        2.24591        0.97316
H         -1.68510        3.48824       -1.48158
H         -3.96269       -1.51752        2.71534
N         -0.90229        3.09690       -2.01274
C         -1.17194        1.82140       -2.39282
C         -2.51751        1.42315       -2.01482
C         -0.09502        0.89367       -2.85548
O         -3.26065        2.21834       -1.42857
C          0.36938        0.23152       -1.57711
C          1.19798        0.93877       -0.71156
C          1.44065        0.48028        0.56673
C          0.84844       -0.70022        1.00462
C          0.11685       -1.46990        0.10836
C         -0.11778       -1.00450       -1.17103
O          0.92742       -1.11698        2.31769
C          0.41190       -0.15639        3.23926
C         -1.01365        0.15780        2.84438
C         -1.96359       -0.83878        3.03861
C         -3.24688       -0.73004        2.53347
C         -3.60506        0.37827        1.78188
C         -2.68391        1.38173        1.56770
C         -1.40105        1.28357        2.10504
N         -0.53078        2.39900        1.87299
O          0.33332        2.65045        2.69348
O         -0.72083        3.06307        0.86767
C         -4.22109       -0.33462       -1.97276
N         -2.92687        0.17027       -2.34494
H         -2.29398       -0.45276       -2.81446
H         -4.75263       -0.71346       -2.84763
H         -4.13133       -1.13474       -1.23280
H         -4.77926        0.49449       -1.54098
C          0.20418        3.89080       -2.20400
O          1.17029        3.55128       -2.85651
C          0.06693        5.21704       -1.50814
H         -0.06976        5.03994       -0.44314
H          0.96128        5.81083       -1.67130
H         -0.80073        5.75460       -1.88446
