47
-79.8773441773 converged=true
H         -0.38392       -0.15083        4.76116
H         -0.79473       -2.46139        4.78516
H          0.35262        2.40615        2.09901
H          0.63691        1.27352       -3.01039
H         -1.15661        0.94200        3.57917
H          0.00440        3.05688       -0.24576
H          0.53957       -1.69564        0.94533
H         -1.01596        0.68112       -2.80441
H         -3.28445       -4.35374        1.87702
H          0.14882       -1.04989       -1.40489
H         -3.50156       -2.18961        0.68816
H         -0.66688        4.58191       -3.35914
H         -1.94517       -4.46607        3.95554
N         -0.13071        3.70227       -3.37904
C         -0.78132        2.77811       -2.62932
C         -2.00762        3.34012       -2.05975
C         -0.27813        1.39765       -2.42475
O         -2.28826        4.52068       -2.30996
C          0.01305        1.04429       -0.98398
C          0.11067        2.01256        0.00788
C          0.31246        1.65361        1.32628
C          0.43855        0.31301        1.66865
C          0.41431       -0.65801        0.67372
C          0.19897       -0.28970       -0.63986
O          0.57092       -0.06554        2.99303
C         -0.65927       -0.02392        3.71258
C         -1.52882       -1.17135        3.25915
C         -1.40975       -2.39866        3.90022
C         -2.04710       -3.53147        3.42560
C         -2.79898       -3.47053        2.26173
C         -2.92325       -2.26956        1.59610
C         -2.30896       -1.12227        2.09637
N         -2.53919        0.08461        1.36734
O         -2.64542       -0.00631        0.14801
O         -2.65961        1.13701        1.97546
C         -3.95054        3.02768       -0.62486
N         -2.77898        2.53786       -1.30427
H         -2.48752        1.59880       -1.06499
H         -4.06209        4.08516       -0.85738
H         -4.83693        2.48508       -0.95988
H         -3.83981        2.89510        0.45304
C          1.03064        3.64034       -4.11085
O          1.70987        2.63935       -4.21619
C          1.35553        4.95929       -4.76716
H          0.55087        5.25148       -5.43892
H          1.47403        5.73427       -4.01254
H          2.27836        4.86260       -5.33142
