47
-79.8684032821 converged=true
H          0.53151       -1.19123        4.24487
H         -0.57341       -3.22764        4.20017
H          0.72842       -1.25710        1.68981
H          1.62208        1.94898       -2.29851
H         -0.87956       -0.38792        4.96611
H          0.93756       -0.81586       -0.69591
H          0.03578        2.89607        2.40288
H          0.52142        0.60077       -2.54888
H         -3.31541       -4.01304        1.02559
H          0.32169        3.35059       -0.01612
H         -3.45161       -1.57939        0.57625
H         -1.65393        1.68012       -1.23264
H         -1.89465       -4.81943        2.88810
N         -1.63545        2.36545       -1.98934
C         -0.37761        2.53004       -2.50397
C          0.14177        3.50589       -3.46658
C          0.64330        1.54883       -2.01128
O          1.33472        3.46306       -3.77674
C          0.58777        1.28913       -0.53351
C          0.73776        0.00802       -0.02618
C          0.61236       -0.24636        1.32866
C          0.29666        0.79372        2.19542
C          0.24332        2.10030        1.70612
C          0.38945        2.34059        0.35999
O         -0.02449        0.64950        3.51376
C         -0.37811       -0.61391        4.01682
C         -1.28551       -1.49229        3.18545
C         -1.22343       -2.86448        3.41761
C         -1.95959       -3.76455        2.67093
C         -2.75769       -3.31516        1.62967
C         -2.83536       -1.96265        1.37519
C         -2.13139       -1.05523        2.16379
N         -2.35787        0.33282        1.87134
O         -2.56825        1.09117        2.79533
O         -2.39870        0.65018        0.68648
C         -0.24842        5.41732       -4.91779
N         -0.69380        4.44637       -3.95506
H         -1.69190        4.38407       -3.75955
H         -0.49623        6.42347       -4.57495
H          0.83147        5.32034       -5.02371
H         -0.72350        5.24843       -5.88727
C         -2.87576        2.89825       -2.24297
O         -3.12393        3.72905       -3.10239
C         -3.93812        2.32507       -1.34754
H         -3.66728        2.45766       -0.30302
H         -4.88287        2.82126       -1.54983
H         -4.04420        1.25770       -1.53063
