47
-79.8714158154 converged=true
H         -1.92159       -2.19107        0.45362
H         -2.82417       -4.14505        1.40886
H         -0.50018       -0.63800       -0.81048
H         -0.07491        4.84025       -0.68485
H         -0.22936       -1.99955        1.00555
H          0.21544        1.34879       -2.02654
H         -1.61914        1.80306        2.51387
H          1.20564        3.88763       -1.45139
H         -2.44686       -4.94216        5.58798
H         -0.89552        3.80945        1.27855
H         -0.96724       -2.96161        5.81635
H         -0.61126        4.02203       -4.53401
H         -3.34883       -5.53387        3.36521
N          0.07940        3.97923       -3.77597
C         -0.56977        3.99969       -2.57724
C         -2.00831        4.05213       -2.75414
C          0.13092        3.93432       -1.26445
O         -2.48806        4.09913       -3.89430
C         -0.30077        2.72139       -0.47410
C         -0.19475        1.45634       -1.03343
C         -0.59691        0.32824       -0.34093
C         -1.11836        0.45457        0.94085
C         -1.22453        1.72063        1.51356
C         -0.82095        2.83700        0.81115
O         -1.56209       -0.58006        1.70947
C         -1.28359       -1.90537        1.30087
C         -1.56447       -2.79682        2.47982
C         -2.40156       -3.89803        2.37113
C         -2.70316       -4.67625        3.47640
C         -2.19789       -4.34686        4.72362
C         -1.37312       -3.24584        4.85725
C         -1.04609       -2.49173        3.73876
N         -0.13212       -1.38725        3.92797
O          0.75021       -1.24000        3.11117
O         -0.28070       -0.71615        4.92418
C         -4.21400        4.05251       -1.70086
N         -2.77663        4.08795       -1.63321
H         -2.34622        3.90425       -0.74133
H         -4.49599        4.19261       -2.74327
H         -4.60345        3.09396       -1.34783
H         -4.64113        4.85452       -1.09636
C          1.41103        3.91918       -4.09456
O          2.30427        3.86757       -3.27237
C          1.63748        3.92281       -5.58799
H          1.13423        3.07467       -6.04784
H          1.24109        4.83787       -6.02351
H          2.70294        3.86189       -5.78923
