47
-79.8709994999 converged=true
H         -3.05492       -0.08913        3.45227
H         -1.28783       -1.07295        4.72753
H         -1.04014        0.51129        2.52838
H          1.24213        2.99574       -0.65740
H         -4.14109       -1.43037        3.00833
H          0.58157        1.81734        1.28140
H         -3.42436        0.10063       -0.99336
H          1.11224        1.86157       -2.00483
H          1.00741       -4.28850        3.10431
H         -1.76181        1.41837       -2.26197
H         -0.60287       -4.47316        1.22519
H         -0.42780        4.45044       -3.92608
H          0.62792       -2.60379        4.87051
N          0.12374        3.67108       -3.55021
C         -0.09692        3.56985       -2.20817
C         -1.02493        4.58156       -1.74309
C          0.53851        2.52754       -1.35525
O         -1.49311        5.40327       -2.54117
C         -0.47519        1.72404       -0.57810
C         -0.29816        1.45162        0.76988
C         -1.22357        0.70651        1.48395
C         -2.35928        0.22693        0.84647
C         -2.54333        0.49235       -0.51138
C         -1.61269        1.22720       -1.21014
O         -3.35091       -0.50271        1.43871
C         -3.19173       -0.93854        2.77069
C         -2.05338       -1.91780        2.92196
C         -1.14447       -1.82742        3.96762
C         -0.06184       -2.68672        4.04464
C          0.15117       -3.63444        3.05671
C         -0.74142       -3.74133        2.00633
C         -1.84536       -2.90275        1.95886
N         -2.79947       -3.11075        0.88754
O         -2.35765       -3.19010       -0.23529
O         -3.95820       -3.25323        1.20376
C         -2.29924        5.50139        0.12870
N         -1.30961        4.60728       -0.41286
H         -1.01184        3.83443        0.16054
H         -2.55590        6.21535       -0.65236
H         -3.19959        4.95975        0.43087
H         -1.89651        6.03413        0.99193
C          0.91461        2.94514       -4.40176
O          1.61968        2.02000       -4.04909
C          0.80839        3.43007       -5.82788
H          1.11321        4.47263       -5.89290
H          1.45245        2.82675       -6.46077
H         -0.21890        3.34744       -6.17705
