47
-79.8697482282 converged=true
H          0.05464       -0.60443        4.03049
H          1.17630       -2.46327        3.02861
H          0.70141       -0.00805        1.87689
H          0.07331        4.67504       -0.62459
H         -1.52598       -1.25062        4.54290
H          1.39234        1.47870        0.08137
H         -2.91599        2.21996        2.32874
H          1.13780        3.37861       -1.20466
H         -0.60112       -4.51319       -0.26991
H         -2.20888        3.72662        0.51388
H         -2.71854       -3.28002        0.12050
H         -1.31588        2.31684       -3.66286
H          1.32905       -4.11860        1.22003
N         -0.55236        2.35320       -2.97809
C         -0.75641        3.40802       -2.13496
C         -1.94689        4.14812       -2.50318
C          0.10918        3.63180       -0.94558
O         -2.60272        3.80106       -3.49348
C         -0.33914        2.72307        0.18346
C          0.45327        1.65887        0.58133
C          0.05464        0.80891        1.59968
C         -1.16122        1.01677        2.23593
C         -1.96903        2.07964        1.83282
C         -1.56193        2.91759        0.81788
O         -1.66657        0.25200        3.25105
C         -0.95050       -0.88131        3.68689
C         -0.85913       -1.95528        2.63050
C          0.31851       -2.65455        2.40044
C          0.40588       -3.58235        1.37726
C         -0.67649       -3.80692        0.54176
C         -1.85834       -3.12165        0.75303
C         -1.94909       -2.22270        1.80578
N         -3.23343       -1.59328        2.04001
O         -3.77063       -1.06946        1.09130
O         -3.70211       -1.69723        3.14995
C         -3.45163        6.02672       -2.05211
N         -2.30266        5.21784       -1.74172
H         -1.72215        5.50010       -0.97055
H         -4.14674        6.04954       -1.21005
H         -3.15641        7.04943       -2.29916
H         -3.94138        5.57497       -2.91335
C          0.48239        1.46584       -3.09265
O          1.47365        1.47755       -2.38893
C          0.25080        0.46684       -4.20216
H         -0.65358       -0.10476       -4.00378
H          0.13401        0.98122       -5.15382
H          1.09876       -0.20920       -4.26088
