47
-79.8709694734 converged=true
H         -0.40553       -0.56079        3.24292
H         -3.23274       -1.68916        4.76214
H         -0.56502        1.60304        2.57560
H          0.68761        4.48528       -0.84170
H         -2.13027       -0.11179        3.41456
H          0.30416        3.43670        1.23682
H         -1.35710       -0.62443       -0.98450
H          1.45179        3.32750       -1.93676
H         -2.73942       -5.88431        4.13095
H         -0.47721        1.24452       -2.33988
H         -1.01010       -5.40650        2.41477
H         -0.89534        4.28427       -4.46023
H         -3.82601       -4.00697        5.31457
N         -0.08318        4.01268       -3.89472
C         -0.43807        3.99300       -2.57872
C         -1.83082        4.35517       -2.39847
C          0.50047        3.61823       -1.48497
O         -2.52364        4.65052       -3.38038
C         -0.03243        2.47973       -0.64888
C         -0.06532        2.55241        0.73554
C         -0.55607        1.50627        1.50120
C         -1.02677        0.35925        0.87753
C         -0.99642        0.27700       -0.51536
C         -0.50516        1.32297       -1.26353
O         -1.54531       -0.72381        1.52171
C         -1.42973       -0.80506        2.92912
C         -1.75719       -2.22157        3.31620
C         -2.73185       -2.50458        4.26227
C         -3.07150       -3.81202        4.56792
C         -2.46309       -4.86619        3.90614
C         -1.49924       -4.60686        2.95026
C         -1.13853       -3.29500        2.67404
N         -0.08309       -3.08910        1.70749
O         -0.07860       -3.81285        0.73735
O          0.75353       -2.24847        1.95588
C         -3.69842        4.64441       -0.84922
N         -2.30775        4.39622       -1.12536
H         -1.74435        4.01024       -0.38468
H         -3.80056        5.42108       -0.08930
H         -4.16083        4.97915       -1.77650
H         -4.20188        3.73751       -0.50353
C          1.10585        3.74855       -4.52402
O          2.12671        3.43997       -3.94206
C          0.99696        3.88734       -6.02379
H          0.69786        4.90032       -6.28548
H          1.96030        3.66882       -6.47500
H          0.25227        3.19532       -6.41193
