47
-79.8713625306 converged=true
H          1.79627       -0.89360        1.65643
H         -0.24784       -3.02271        3.75600
H          2.32921        1.55893        1.69448
H         -1.85569        4.72127        0.16433
H          1.64612       -1.76740        3.20610
H          1.55627        3.38250        0.23950
H         -1.67608        0.88078        2.99460
H         -0.21805        4.83591       -0.52742
H         -3.67555       -3.20592        1.21548
H         -2.46697        2.68947        1.49405
H         -2.62139       -1.53825       -0.28675
H          0.24887        2.59354       -1.51128
H         -2.45267       -3.96631        3.22936
N         -0.59725        2.65182       -2.07463
C         -1.53396        3.43399       -1.46706
C         -2.95973        3.61109       -1.75397
C         -1.02340        4.14903       -0.24805
O         -3.64489        4.30058       -0.99668
C         -0.51740        3.14090        0.75077
C          0.83503        2.82614        0.82415
C          1.28079        1.81269        1.65172
C          0.36900        1.09801        2.41832
C         -0.98057        1.43384        2.38125
C         -1.41718        2.44632        1.54918
O          0.79060        0.05229        3.21830
C          1.12774       -1.12592        2.49088
C         -0.14390       -1.79179        2.02257
C         -0.76023       -2.71710        2.85630
C         -2.00850       -3.23949        2.56667
C         -2.69478       -2.81598        1.43822
C         -2.11420       -1.88908        0.59923
C         -0.84118       -1.39026        0.87527
N         -0.31093       -0.47253       -0.08001
O         -1.09996        0.25314       -0.67116
O          0.89499       -0.46478       -0.30501
C         -4.86088        3.11702       -3.18803
N         -3.46870        3.00902       -2.84713
H         -2.86340        2.45127       -3.44746
H         -5.34042        3.76700       -2.45695
H         -4.97437        3.54317       -4.18695
H         -5.33709        2.13410       -3.16866
C         -0.53226        1.84095       -3.18319
O         -1.41671        1.70863       -4.00988
C          0.80453        1.15808       -3.29494
H          0.80438        0.51059       -4.16692
H          1.59869        1.89578       -3.39946
H          1.00261        0.56125       -2.40558
