47
-79.8740105736 converged=true
H          0.38614       -0.50512        3.63358
H         -0.61125       -1.67319        5.39705
H          0.66146        1.49162        1.58080
H          1.41832        2.17401       -3.27176
H         -0.81098        0.51232        2.78086
H          0.85462        2.73646       -0.50900
H         -0.33938       -2.03486       -0.61470
H          0.01346        1.28669       -3.86382
H         -4.38135       -3.62994        4.94904
H         -0.12259       -0.77802       -2.72456
H         -4.58560       -2.67553        2.66708
H         -0.66892        5.06987       -3.06927
H         -2.39129       -3.09497        6.31469
N          0.05976        4.36773       -3.25399
C         -0.41623        3.14005       -2.91312
C         -1.77528        3.23273       -2.39082
C          0.38932        1.89390       -3.03236
O         -2.31246        4.34551       -2.31105
C          0.34866        1.08094       -1.76268
C          0.58484        1.69103       -0.53779
C          0.46826        0.98793        0.64620
C          0.09923       -0.35180        0.61990
C         -0.07872       -0.98813       -0.60678
C          0.04251       -0.27612       -1.78167
O         -0.09273       -1.12727        1.72684
C         -0.46987       -0.51526        2.94753
C         -1.59476       -1.32680        3.53810
C         -1.49224       -1.87710        4.80728
C         -2.49261       -2.68549        5.32133
C         -3.60924       -2.98635        4.55766
C         -3.72868       -2.45899        3.28694
C         -2.73810       -1.62031        2.78894
N         -2.95196       -1.06576        1.47907
O         -3.50551       -1.76965        0.65731
O         -2.61484        0.08893        1.27686
C         -3.67673        2.07583       -1.37791
N         -2.40351        2.08390       -2.05312
H         -1.87743        1.22447       -2.03325
H         -4.04064        3.10077       -1.33625
H         -4.38905        1.45678       -1.92604
H         -3.56418        1.68080       -0.36645
C          1.27622        4.77705       -3.73721
O          2.19960        4.02331       -3.97394
C          1.33122        6.27200       -3.94068
H          1.15084        6.78676       -2.99910
H          2.31107        6.54736       -4.31947
H          0.56960        6.57991       -4.65425
