47
-79.8725086736 converged=true
H          1.42807       -1.01381        1.03812
H         -0.78766       -2.35383        3.57265
H          2.43918        1.14613        0.92271
H         -1.24478        5.04424       -0.31239
H          1.27782       -1.90702        2.57612
H          1.84667        3.04369       -0.52435
H         -1.27836        1.53614        2.97997
H          0.25313        4.73204       -1.26178
H         -4.40496       -2.28060        1.30764
H         -1.88275        3.44325        1.52018
H         -3.19331       -1.20687       -0.54562
H         -1.12792        1.46560       -2.39767
H         -3.18025       -2.87209        3.38320
N         -0.72530        2.40612       -2.31352
C         -1.33361        3.27755       -1.48518
C         -2.76208        3.14429       -1.13851
C         -0.56642        4.28868       -0.70369
O         -3.34770        4.05271       -0.56185
C         -0.07803        3.34185        0.37260
C          1.15627        2.71094        0.23535
C          1.49273        1.64904        1.04775
C          0.58925        1.19189        2.00270
C         -0.60441        1.87609        2.20817
C         -0.93456        2.94225        1.39535
O          0.84707        0.05165        2.73301
C          0.83061       -1.13702        1.94310
C         -0.60392       -1.50319        1.63620
C         -1.31682       -2.11053        2.66357
C         -2.66614       -2.39546        2.56307
C         -3.35244       -2.06329        1.40335
C         -2.67928       -1.45677        0.36956
C         -1.31003       -1.16431        0.46448
N         -0.73070       -0.55578       -0.66545
O         -1.49966       -0.14628       -1.56793
O          0.48938       -0.42534       -0.78206
C         -4.78393        1.79909       -1.20170
N         -3.39645        2.00920       -1.53900
H         -2.86166        1.17001       -1.72410
H         -5.28949        1.30939       -2.03368
H         -4.89007        1.18412       -0.30345
H         -5.23586        2.77191       -1.01563
C          0.51484        2.55191       -2.94021
O          1.11877        3.59585       -2.97440
C          0.96963        1.27058       -3.57296
H          1.12281        0.52502       -2.79179
H          0.21786        0.89471       -4.26377
H          1.90344        1.43427       -4.10218
