47
-79.8731073228 converged=true
H          0.60588       -2.12212        1.99274
H         -2.00134        0.13509        3.11571
H         -0.00814       -0.80520        0.30058
H          0.60758        4.55596       -0.66013
H          0.03961       -2.17399        3.67306
H          0.13563        0.91573       -1.40900
H          0.91426        2.09947        3.29877
H          1.52139        3.47809       -1.71369
H         -5.28454       -1.92895        1.32782
H          1.04458        3.84266        1.56000
H         -3.76925       -3.81497        0.78765
H         -1.34397        3.30863       -3.84379
H         -4.37446        0.05446        2.49930
N         -0.41935        3.41748       -3.41179
C         -0.55408        3.44674       -2.05656
C         -1.94386        3.30656       -1.65847
C          0.60317        3.56420       -1.12687
O         -2.81925        3.16888       -2.52171
C          0.57567        2.50659       -0.05150
C          0.29946        1.18501       -0.37612
C          0.21535        0.20674        0.59751
C          0.42271        0.53905        1.93202
C          0.73703        1.85674        2.26293
C          0.80804        2.82502        1.28317
O          0.32839       -0.32869        2.98127
C         -0.07080       -1.65367        2.71395
C         -1.51419       -1.75709        2.26968
C         -2.38797       -0.72194        2.58559
C         -3.72737       -0.77136        2.24488
C         -4.24029       -1.88142        1.59272
C         -3.40041       -2.93242        1.28808
C         -2.04707       -2.87106        1.61218
N         -1.25433       -4.01015        1.21942
O         -0.08760       -3.83286        0.92562
O         -1.81519       -5.08488        1.17982
C         -3.55125        3.10052        0.17013
N         -2.23028        3.37518       -0.33099
H         -1.46998        3.36865        0.33019
H         -4.23186        3.10548       -0.67982
H         -3.59172        2.12158        0.65733
H         -3.85157        3.86897        0.88381
C          0.68703        3.49239       -4.22018
O          1.81983        3.62741       -3.80362
C          0.32929        3.38994       -5.68274
H         -0.16794        2.44295       -5.88281
H         -0.34268        4.19924       -5.96133
H          1.23482        3.45339       -6.27883
