47
-79.8725322368 converged=true
H          0.31815       -1.63226        3.38256
H         -1.93084       -1.91737        3.47759
H          2.60603        1.32074        0.71524
H          0.52610        1.42077       -3.51552
H          0.61877       -0.05610        4.15326
H          1.98253        1.77367       -1.63383
H         -0.35643       -1.74505        0.89740
H         -0.62466        0.06085       -3.55865
H         -4.59420        0.72946        1.44365
H         -0.99779       -1.27702       -1.40226
H         -2.74156        2.31970        1.11678
H         -1.66855        3.40407       -1.36797
H         -4.18685       -1.37751        2.69168
N         -0.94103        3.03357       -1.98390
C         -1.26119        1.78341       -2.41614
C         -2.59165        1.39298       -1.98607
C         -0.21094        0.85937       -2.94367
O         -3.27326        2.15833       -1.29393
C          0.39407        0.33773       -1.65966
C          1.46084        1.01430       -1.07339
C          1.81941        0.76304        0.23254
C          1.10706       -0.16903        0.98564
C          0.14408       -0.95526        0.35860
C         -0.21312       -0.69013       -0.94866
O          1.38457       -0.21761        2.32240
C          0.33647       -0.54562        3.21389
C         -1.04559       -0.10003        2.79775
C         -2.11040       -0.97530        2.97971
C         -3.38308       -0.67639        2.52529
C         -3.61602        0.50195        1.83514
C         -2.58212        1.39684        1.65231
C         -1.31492        1.11267        2.15265
N         -0.32257        2.14474        2.01211
O          0.51163        2.25920        2.88429
O         -0.42109        2.88727        1.04925
C         -4.37877       -0.28012       -2.02865
N         -3.05710        0.17318       -2.37134
H         -2.51945       -0.38507       -3.01165
H         -4.97755       -0.45910       -2.92441
H         -4.33172       -1.19990       -1.44026
H         -4.84450        0.50489       -1.43516
C          0.15517        3.82371       -2.23416
O          1.02433        3.53223       -3.02984
C          0.13855        5.07964       -1.40684
H         -0.75537        5.66280       -1.61721
H          0.13355        4.80113       -0.35458
H          1.02004        5.67459       -1.62599
