47
-79.8679086658 converged=true
H          1.39221       -1.20280        3.38653
H         -0.97454       -2.71052        1.85701
H         -1.42018        0.69119        2.01506
H         -2.73481        0.79283       -3.23527
H          0.54979        0.31924        3.10057
H         -2.74782        1.72840        0.27118
H          0.91219       -1.32088       -0.94864
H         -3.38987        1.92608       -2.03375
H         -3.98170       -3.01509        4.87451
H         -0.45078       -0.25923       -2.72493
H         -2.83986       -1.22415        6.15778
H         -1.39609        3.21087       -1.22785
H         -3.01878       -3.75569        2.71578
N         -1.15832        3.49119       -2.17664
C         -1.64164        2.57825       -3.08218
C         -1.41219        2.44807       -4.51770
C         -2.46962        1.49879       -2.44619
O         -1.87289        1.47268       -5.11441
C         -1.69005        0.81369       -1.35395
C         -1.93616        1.07199       -0.01453
C         -1.18093        0.47703        0.98516
C         -0.14594       -0.38462        0.64679
C          0.10798       -0.64608       -0.70209
C         -0.65200       -0.05344       -1.68474
O          0.66836       -1.02440        1.53481
C          0.51118       -0.76028        2.90890
C         -0.73273       -1.37735        3.50063
C         -1.38683       -2.38530        2.79974
C         -2.54057       -2.97297        3.28423
C         -3.08104       -2.56060        4.49328
C         -2.45150       -1.56578        5.21029
C         -1.28275       -0.98062        4.72593
N         -0.68380        0.03862        5.54264
O          0.48506        0.32045        5.35127
O         -1.38303        0.56558        6.38486
C         -0.43159        3.34639       -6.55611
N         -0.68961        3.40278       -5.14273
H         -0.35555        4.21119       -4.62313
H          0.64382        3.33625       -6.74574
H         -0.87943        2.43279       -6.94542
H         -0.86991        4.21050       -7.06025
C         -0.43507        4.65357       -2.22044
O         -0.04822        5.20841       -3.23494
C         -0.16936        5.20153       -0.83862
H         -1.10579        5.43503       -0.33472
H          0.37877        4.47511       -0.24101
H          0.42059        6.10933       -0.92499
