47
-79.8736868552 converged=true
H         -0.43162       -2.79416        3.30656
H          0.12555        0.20402        4.45852
H          0.66588        0.31972        1.61703
H          1.16141        1.79473       -3.04152
H          0.84468       -1.57358        3.07130
H          0.77903        1.85687       -0.26677
H         -0.54486       -2.81858       -1.01643
H         -0.21442        0.94943       -3.76621
H         -3.54415        2.21658        3.60736
H         -0.40803       -1.26307       -2.92592
H         -4.16003        0.39955        2.03807
H         -1.03281        4.47938       -2.13964
H         -1.41281        2.07680        4.85251
N         -0.26106        3.87352       -2.44426
C         -0.71169        2.58818       -2.49542
C         -2.10379        2.50296       -2.08290
C          0.15100        1.42701       -2.85122
O         -2.70088        3.53315       -1.74015
C          0.16375        0.42176       -1.72487
C          0.48167        0.83313       -0.43874
C          0.41538       -0.03973        0.63174
C          0.01642       -1.35479        0.42498
C         -0.25568       -1.79028       -0.87069
C         -0.18336       -0.90973       -1.92918
O         -0.16000       -2.28972        1.40646
C         -0.16058       -1.88593        2.75681
C         -1.14867       -0.78560        3.06118
C         -0.82307        0.23796        3.94281
C         -1.68624        1.29796        4.15741
C         -2.88367        1.37634        3.46406
C         -3.23016        0.36852        2.58523
C         -2.37966       -0.71548        2.41132
N         -2.83927       -1.78169        1.55054
O         -2.81268       -2.90756        1.99072
O         -3.27998       -1.45829        0.46549
C         -4.04892        1.07480       -1.66408
N         -2.69975        1.28838       -2.12306
H         -2.14668        0.46916       -2.31299
H         -4.69285        0.77931       -2.49588
H         -4.06600        0.29034       -0.90759
H         -4.41152        2.01333       -1.24799
C          0.96672        4.41925       -2.70651
O          1.93271        3.76736       -3.05755
C          1.01268        5.91693       -2.51464
H          1.35026        6.37928       -3.44008
H          0.04863        6.32833       -2.23242
H          1.74810        6.15217       -1.74739
