47
-79.8714304324 converged=true
H         -0.59093       -1.01461        4.64759
H         -0.33105       -3.06664        3.43004
H          0.56740        2.41465        3.33685
H          0.16229        4.40174       -0.85550
H         -1.34883        0.41645        3.89317
H          0.50993        3.98107        1.43480
H          0.38063       -0.88092        0.63816
H          1.36594        3.40435       -1.68581
H         -3.17338       -4.03779        0.39254
H          0.32282        0.68411       -1.27007
H         -3.93435       -1.68252        0.39145
H         -1.15701        2.56087       -4.07576
H         -1.35379       -4.72318        1.92916
N         -0.29598        2.75870       -3.54872
C         -0.62046        3.01410       -2.25407
C         -2.06068        2.92097       -2.04526
C          0.37743        3.39106       -1.21926
O         -2.79260        2.68759       -3.01617
C          0.39948        2.43835       -0.04763
C          0.47885        2.91587        1.25445
C          0.51481        2.04404        2.32493
C          0.46858        0.67495        2.10334
C          0.40546        0.18622        0.80458
C          0.37286        1.06553       -0.26050
O          0.49784       -0.19719        3.17832
C         -0.78723       -0.50320        3.70098
C         -1.52832       -1.43746        2.77213
C         -1.12432       -2.76918        2.76087
C         -1.69861       -3.70058        1.91589
C         -2.71761       -3.31899        1.05524
C         -3.14427       -2.00896        1.05059
C         -2.55148       -1.06481        1.89147
N         -3.07117        0.26722        1.79411
O         -4.20228        0.39400        1.35213
O         -2.37766        1.21390        2.13109
C         -3.94587        3.10618       -0.50840
N         -2.53416        3.13961       -0.79840
H         -1.89857        3.16718       -0.01617
H         -4.23696        4.01169        0.02566
H         -4.47707        3.05092       -1.45677
H         -4.20938        2.23840        0.09902
C          0.90884        2.74871       -4.20755
O          1.97356        2.98377       -3.67293
C          0.75108        2.40967       -5.66966
H          1.72758        2.40560       -6.14485
H          0.29126        1.42982       -5.78153
H          0.11638        3.14674       -6.15753
