47
-79.8678811285 converged=true
H          0.30969        0.07522        4.39023
H          0.38028       -2.23659        2.11184
H          2.41559        0.41506        0.59415
H          0.36863        0.81594       -3.62338
H         -0.91452        0.86106        3.39339
H          1.94381        0.77039       -1.79859
H         -1.77943        0.18823        1.38097
H         -1.32712        0.35129       -3.34770
H         -2.95193       -4.66253        3.22666
H         -2.23951        0.57333       -0.98412
H         -3.81270       -2.79739        4.61866
H          0.75328        2.85854       -2.30743
H         -0.83029       -4.36210        1.98412
N         -0.04739        3.32951       -2.72165
C         -0.97817        2.41254       -3.14881
C         -2.35330        2.59548       -3.60081
C         -0.51475        0.99200       -3.00118
O         -3.05600        1.60337       -3.80656
C         -0.19035        0.70403       -1.55733
C          1.12275        0.66305       -1.10186
C          1.39948        0.45481        0.23430
C          0.36313        0.28779        1.15163
C         -0.95315        0.32747        0.70195
C         -1.21738        0.53989       -0.63867
O          0.74964        0.08529        2.44478
C         -0.23807       -0.00154        3.44455
C         -1.01162       -1.29722        3.42368
C         -0.54202       -2.35945        2.65823
C         -1.22596       -3.55883        2.58640
C         -2.41310       -3.73004        3.28249
C         -2.89698       -2.69669        4.05603
C         -2.20250       -1.49098        4.13532
N         -2.76552       -0.47554        4.98367
O         -3.92692       -0.59988        5.31356
O         -2.05213        0.44694        5.33127
C         -4.15408        4.11217       -4.21907
N         -2.81313        3.85435       -3.76857
H         -2.19154        4.64696       -3.62581
H         -4.65669        3.15458       -4.35024
H         -4.69437        4.71037       -3.48218
H         -4.14164        4.65068       -5.16915
C          0.07187        4.69326       -2.70370
O         -0.73790        5.48070       -3.16352
C          1.35848        5.13591       -2.04788
H          1.41146        4.76460       -1.02586
H          2.21692        4.76060       -2.60253
H          1.39411        6.22135       -2.03533
