47
-79.8723890121 converged=true
H          1.56974       -1.47636        2.54339
H         -1.43475       -2.91920        3.99145
H         -1.85575        0.96077        2.66185
H         -0.14774        4.66631       -0.17466
H          0.76395       -2.06857        4.02139
H         -1.97465        2.64076        0.84551
H          2.38871        0.82555        2.25181
H          1.02354        3.72536       -1.11430
H         -3.83965       -2.85218        0.46283
H          2.27049        2.47535        0.43667
H         -2.03395       -1.64697       -0.72215
H         -0.23813        1.58672       -1.75653
H         -3.50963       -3.52182        2.82252
N         -0.92883        2.18610       -2.20841
C         -1.02851        3.40149       -1.59247
C         -2.02837        4.46548       -1.73413
C          0.05801        3.67836       -0.59958
O         -1.91316        5.48973       -1.05887
C          0.13637        2.65972        0.50722
C         -1.02094        2.23718        1.15142
C         -0.95968        1.30276        2.16610
C          0.26938        0.78352        2.56007
C          1.43420        1.22409        1.94286
C          1.36103        2.14991        0.92027
O          0.30808       -0.16477        3.56578
C          0.63617       -1.47603        3.11393
C         -0.52413       -1.99752        2.30236
C         -1.55720       -2.66360        2.94987
C         -2.73192       -2.99076        2.29556
C         -2.91837       -2.61824        0.97280
C         -1.91508       -1.94484        0.30853
C         -0.71740       -1.65153        0.95852
N          0.29519       -1.01534        0.17706
O         -0.07469       -0.22603       -0.69073
O          1.46357       -1.31039        0.35961
C         -4.07111        5.27719       -2.77238
N         -3.07177        4.26317       -2.56649
H         -3.06106        3.46474       -3.19940
H         -5.06661        4.85358       -2.62905
H         -3.90227        6.07341       -2.04832
H         -4.00480        5.68809       -3.78268
C         -1.51878        1.58541       -3.29407
O         -2.42653        2.06281       -3.95559
C         -0.89116        0.26006       -3.62519
H         -1.54526       -0.29275       -4.29357
H          0.05812        0.42973       -4.13204
H         -0.69569       -0.31248       -2.72276
