47
Coordinates from ORCA-job /home/esp/scriptDevelopment/drFrankenstein/11_PCY_CHARMM/04_torsion_scanning/torsion_NH1-CT1-CG321-CG2R61/scans_PCY_conformer_21/PCY_conformer_21_backwards/orca_scan E -79.900253469510
  H          -0.55232718501803     -1.58051288594540      3.17746724821104
  H          -1.79237520929117     -1.88016398586098     -0.16287409457716
  H          -3.95321972124710      0.61274449903095      1.57233929572532
  H          -1.77051152305266      4.82227379422774      0.84144844993993
  H          -1.73419465743772     -2.86643559511909      2.94739059815955
  H          -3.55265734887232      2.92700567945366      0.81459647761102
  H           0.26045052592062     -0.08537143747981      1.63064283488668
  H          -0.12393335160498      4.38461300440452      0.34541261843035
  H           1.59117394608742     -3.92819259518738     -1.77676749061895
  H           0.65216198735131      2.18387469367830      0.88852233057071
  H           2.41065464524902     -4.33785363182891      0.52638722526641
  H          -3.00760845282910      4.43459897137683     -2.54134698158493
  H          -0.54110949012063     -2.70470516549066     -2.10141837702093
  N          -2.88494256292935      4.55847763746414     -1.52944328178246
  C          -1.62318283755286      4.20855561961505     -1.16848813822464
  C          -0.85028206255525      3.73911707098470     -2.31146371215036
  C          -1.17696514896891      4.12354681594945      0.24894087739069
  O          -1.34692038471631      3.80060087225660     -3.45522183287988
  C          -1.42200616451953      2.71755105545550      0.76316263512603
  C          -2.71915535866922      2.26056551352420      0.97149492121093
  C          -2.95115238758713      0.97333281839011      1.40409273967582
  C          -1.88566745908611      0.10357415894955      1.64096755147751
  C          -0.58700157973054      0.55616925886671      1.44912265516124
  C          -0.36810341114311      1.85210470615605      1.01093319841858
  O          -2.23077701148162     -1.15566184087460      2.04795293292101
  C          -1.21195010033385     -2.05020109449382      2.43697751266890
  C          -0.41652211365203     -2.61154347516211      1.28603181820216
  C          -0.86592720232043     -2.41216077355402     -0.01412147705964
  C          -0.15917585148213     -2.87827850802284     -1.10835180293246
  C           1.03387399643416     -3.56548805638207     -0.92901630980132
  C           1.49686448697430     -3.79288166854987      0.34760762918297
  C           0.78047197648876     -3.32972878956476      1.45672171439498
  N           1.31548230991368     -3.62898958682161      2.73257069679493
  O           0.63147236703790     -3.44023475500725      3.73890817015570
  O           2.45928274459635     -4.07983237994685      2.79904912572851
  C           1.22482610744015      2.72500371635022     -3.12853140887756
  N           0.38917580613269      3.26506610397505     -2.08525587362602
  H           0.71854042096127      3.18002978927038     -1.13783724426702
  H           1.40163744452815      1.66177946090893     -2.96295862450858
  H           0.70839602271713      2.86278990029390     -4.07673549451753
  H           2.17971678687742      3.24957141217831     -3.15524088046401
  C          -3.90775489529651      5.14519317306303     -0.82898044854647
  O          -3.84212248429409      5.41149491853721      0.36419428982335
  C          -5.11548874633763      5.41077292685095     -1.68081907309436
  H          -5.89224974233404      5.86292670623354     -1.07154672483365
  H          -4.85724083265111      6.08326227632826     -2.49508329340510
  H          -5.48263629759475      4.47964967151814     -2.10544298236138
