47
Coordinates from ORCA-job /home/esp/scriptDevelopment/drFrankenstein/11_PCY_CHARMM/04_torsion_scanning/torsion_NH1-CT1-CG321-CG2R61/scans_PCY_conformer_21/PCY_conformer_21_backwards/orca_scan E -79.901533500860
  H          -0.91720267434926     -1.80888986706974      3.02473582937885
  H          -1.06086476216929     -2.14856221322385     -0.53197843943206
  H          -3.93306827665621      0.02667179219608      0.49029685248200
  H          -1.93752426118841      4.53255337203962      0.93693339025933
  H          -1.80638560354222     -3.21703832307318      2.45073265674450
  H          -3.63054836775287      2.41447946072588     -0.06760452506533
  H           0.13047940167180     -0.17239231095266      1.79269632628983
  H          -0.33653318029302      4.18851141066783      0.27442793682986
  H           2.88014070413081     -3.71528857562237     -1.05199665498077
  H           0.42469413173068      2.17433277629299      1.24356271058623
  H           3.02646702658107     -4.08898378485157      1.39381785087835
  H          -3.08653871322096      5.23118256144671     -2.38748808314243
  H           0.80311290239233     -2.75775656153130     -2.00652894791270
  N          -2.89610761870241      5.16598721140899     -1.38066503790335
  C          -1.90887402329849      4.26374595253946     -1.15004917339558
  C          -1.42795941963460      3.65210534630179     -2.38115413296701
  C          -1.39662319798614      3.92873097607841      0.20510400842316
  O          -1.91302980644034      4.00659901858591     -3.47546951845470
  C          -1.57636222879321      2.46464571339788      0.53696066561337
  C          -2.80551913678712      1.84453422116815      0.33161193521591
  C          -2.98392936002250      0.51456735126967      0.64326497428735
  C          -1.93288836493343     -0.23405794345760      1.17568768089603
  C          -0.70372610060669      0.37705588560730      1.38686202502122
  C          -0.53624982676318      1.71458377449969      1.06561221851353
  O          -2.21709939197751     -1.54560094688913      1.43897867512741
  C          -1.26048704568572     -2.32680282362524      2.12051623480791
  C          -0.09377587441132     -2.74891715938517      1.26420428041259
  C          -0.15922270700994     -2.56606260548793     -0.11218970359952
  C           0.89230830715170     -2.90947512671675     -0.94300127059149
  C           2.05569847102425     -3.44945385929360     -0.41140635727223
  C           2.14514180012978     -3.65591125565085      0.94696317179220
  C           1.07949131613229     -3.31936571974772      1.78896827562073
  N           1.24542010761109     -3.59041349300148      3.16832717452411
  O           0.27428401220422     -3.52377983301354      3.92247735558208
  O           2.36658969925634     -3.89361741823093      3.57688468769093
  C           0.07524159072689      2.02632300283421     -3.42460916914696
  N          -0.44302552501750      2.73830617636459     -2.28303430866743
  H          -0.15474108361001      2.42406598249215     -1.36940539387653
  H          -0.21787136939070      0.97635492550092     -3.38771348109582
  H          -0.33914322991227      2.48337468156135     -4.32143120558572
  H           1.16183909039187      2.09741173377534     -3.44594413221386
  C          -3.64028386024318      5.94727591472025     -0.53422319995350
  O          -3.49625881937903      5.95106959099691      0.68200151180125
  C          -4.64582943361107      6.79334439163809     -1.26062179340993
  H          -5.20488079864523      7.38335610532203     -0.54075845481738
  H          -4.13876156270673      7.45699100169600     -1.95669848256121
  H          -5.33057293639448      6.16221948969636     -1.82166696273331
