47
Coordinates from ORCA-job /home/esp/scriptDevelopment/drFrankenstein/11_PCY_CHARMM/04_torsion_scanning/torsion_NH1-CT1-CG321-CG2R61/scans_PCY_conformer_21/PCY_conformer_21_backwards/orca_scan E -79.897991570220
  H           0.36272250913406     -1.46538422499980      2.67803887502167
  H          -2.95627561359952     -1.45821749272381      1.34814126188483
  H          -2.76438260915217      1.46512444932065      3.54934180565056
  H          -2.08013396284256      4.79548145862709      0.37857557729630
  H          -0.79920184540688     -2.41986769842238      3.59562506056156
  H          -2.68193434505469      3.60641618012794      2.32733279685131
  H           0.06917035973029     -0.19369785272142      0.81695915986417
  H          -0.31887527725056      4.81278557269732      0.54747052244307
  H          -2.27389453647515     -4.30961671550063     -1.75869697601172
  H           0.17728431115259      1.92830718857121     -0.36041966160733
  H          -0.09938222524384     -4.88631993284376     -0.71814540271284
  H          -1.59826653869758      3.12197746526727     -2.95949045389214
  H          -3.70798785762849     -2.59220382664088     -0.68892903986382
  N          -1.90650910123400      3.24551417398835     -1.98925632051909
  C          -1.05104447104904      4.05745418312918     -1.31211766951670
  C           0.00964800951297      4.56160858010898     -2.17307675507254
  C          -1.16142682593840      4.24195900690325      0.15742443847339
  O           0.03640718982668      4.21571424965273     -3.37342123492237
  C          -1.24338837251621      2.92224061769438      0.89513853487420
  C          -2.06906596208720      2.78002278975725      2.00411987527440
  C          -2.12551840860290      1.58615504688764      2.68932997474972
  C          -1.35854844888260      0.49651234103880      2.27685884241595
  C          -0.53125659976568      0.63000664014060      1.16971768319434
  C          -0.47591868261984      1.83881236388718      0.49586091511407
  O          -1.50323430826231     -0.64284968487108      3.02301637338884
  C          -0.69329442234738     -1.75869971082354      2.72882214375699
  C          -1.10780402394390     -2.50323505190912      1.48517496986638
  C          -2.32851238276014     -2.20650573542468      0.89038287886572
  C          -2.75151441094695     -2.84579066592142     -0.26127066961934
  C          -1.95152529153485     -3.80947552363936     -0.86046957652198
  C          -0.74109191232583     -4.13235875151736     -0.28946115992690
  C          -0.31460291198522     -3.49510484525265      0.88107704582298
  N           0.93104858896025     -3.90470211074970      1.41239672901083
  O           1.25808436244841     -3.54789500137828      2.54539045167297
  O           1.65952821378760     -4.61825623594440      0.72076579483680
  C           2.00403625350422      5.96227691972887     -2.42358363025083
  N           0.92836485581206      5.39617348095652     -1.64786668160625
  H           0.85989779527019      5.67910211302822     -0.68406643458807
  H           2.96619479075509      5.69173656504693     -1.98854310278538
  H           1.93660191855795      5.56163129001976     -3.43353330256135
  H           1.91752485737911      7.04858758359174     -2.45934267807354
  C          -3.11946525387727      2.72260113300327     -1.61468576619952
  O          -3.64564844393911      2.96627587071033     -0.54050713861554
  C          -3.72149764749873      1.84097715654672     -2.67105370088659
  H          -4.64907768285147      1.41792253236147     -2.29837161287103
  H          -3.92670957598877      2.42229873835449     -3.56682655094461
  H          -3.03050406352214      1.04251537013596     -2.92783619132163
