47
Coordinates from ORCA-job /home/esp/scriptDevelopment/drFrankenstein/11_PCY_CHARMM/04_torsion_scanning/torsion_NH1-CT1-CG321-CG2R61/scans_PCY_conformer_21/PCY_conformer_21_backwards/orca_scan E -79.898646056590
  H           0.44392324170209     -1.39778513153203      2.68679887305527
  H          -2.89363503877737     -1.46601566720585      1.39153527730527
  H          -2.77735710678849      1.44467361951710      3.56285057966154
  H          -2.27889827135482      4.73469874870602      0.31088548960961
  H          -0.69313457324350     -2.38330353476383      3.60279080128134
  H          -2.78625653407608      3.57603731426355      2.32013128150964
  H           0.11311079211106     -0.12231685070065      0.83560400031743
  H          -0.53302855333433      4.89569922916976      0.53468686585036
  H          -2.15765178255793     -4.24600584274512     -1.76700209142740
  H           0.12887878292771      1.98900782853620     -0.36308386980028
  H           0.04361407766734     -4.77347045385381     -0.75679960628909
  H          -1.73798758663119      3.18341034836145     -3.00256133582062
  H          -3.63102353574186     -2.58826744300797     -0.65664167614832
  N          -2.05492057495858      3.31126908639566     -2.03568646664928
  C          -1.15113914742470      4.03891830769295     -1.32716989349245
  C          -0.01596104924101      4.43806519834230     -2.14657256837575
  C          -1.31394247620402      4.25046052348547      0.13310327459950
  O          -0.00019022875233      4.12957898555409     -3.35740799248788
  C          -1.32436311805390      2.93781151782637      0.89062957926241
  C          -2.14087917316820      2.77235339465305      2.00319374588542
  C          -2.14610053119984      1.58373144781463      2.69993826551226
  C          -1.33745067967777      0.52188947086887      2.29420099886551
  C          -0.51886642539746      0.67935172483713      1.18372877654346
  C          -0.51508557283301      1.88291585790437      0.49828245915967
  O          -1.43697022698024     -0.61695224472472      3.04804308727699
  C          -0.60547051017457     -1.71337716096617      2.74081812341800
  C          -1.01221067511581     -2.45510394772977      1.49277029363690
  C          -2.24799125602756     -2.18719600175985      0.91554684894671
  C          -2.66336992361206     -2.82050546076502     -0.24214661476398
  C          -1.84108925363608     -3.75033855069387     -0.86423148221775
  C          -0.61567444490154     -4.04548771677011     -0.31030255747082
  C          -0.19613728535177     -3.41303216770623      0.86521569876390
  N           1.06753356835021     -3.79150221240934      1.37716739895406
  O           1.38985986423311     -3.45229161744491      2.51674685253014
  O           1.81551460106008     -4.45992355844415      0.66195446799798
  C           2.14901552847524      5.57475828512205     -2.29774754230778
  N           0.98329357081187      5.13592681294287     -1.57149810286978
  H           0.94972231925540      5.34562109238508     -0.58722253583728
  H           3.05008417377759      5.12728391997769     -1.87740012116130
  H           2.03768517848829      5.25915488442328     -3.33364939445477
  H           2.23378449525082      6.66076128399974     -2.25665560970148
  C          -3.29079094211678      2.83186900597632     -1.68008011033119
  O          -3.79578897367749      3.03284844714873     -0.58640930917316
  C          -3.94620719095921      2.04683713087919     -2.78011342327977
  H          -4.90867497770073      1.68212764688301     -2.43497722902103
  H          -4.09130905542100      2.67768935392469     -3.65361363422723
  H          -3.31744351901951      1.20613509563163     -3.06165987263508
