47
Coordinates from ORCA-job /home/esp/scriptDevelopment/drFrankenstein/11_PCY_CHARMM/04_torsion_scanning/torsion_NH1-CT1-CG321-CG2R61/scans_PCY_conformer_21/PCY_conformer_21_backwards/orca_scan E -79.901388605190
  H          -0.78647695978930     -1.70923489422355      3.08705655290566
  H          -1.33299898842310     -2.11301127358245     -0.42761132592479
  H          -3.97596020196985      0.22974080658194      0.87197108284604
  H          -1.87095251376950      4.64084446104070      0.91679499124338
  H          -1.79332765118207     -3.08361374607678      2.63943331242367
  H          -3.63162264144146      2.59663689894492      0.25021884456823
  H           0.19580881324408     -0.14446848006325      1.71037545574605
  H          -0.25659736015770      4.25694901192698      0.29635671861702
  H           2.45782212156817     -3.86483617879191     -1.33178762659413
  H           0.53083499553350      2.18053682567296      1.10480740103869
  H           2.86053794460872     -4.18330412555666      1.09316666921296
  H          -3.07853232547660      5.01896124826758     -2.44742845635575
  H           0.32853796593448     -2.83950737961850     -2.07924283802845
  N          -2.91567915514675      4.99806304944763     -1.43406872958621
  C          -1.81273861857714      4.25889963495449     -1.15373200355948
  C          -1.21617873971941      3.68931546753072     -2.35373177007586
  C          -1.31660643194757      4.00396002030647      0.22520397360565
  O          -1.69396089801336      3.96841147510895     -3.47263633498545
  C          -1.52193714646255      2.55525705062191      0.61446488530579
  C          -2.79261091783231      1.99117140882157      0.55725740429945
  C          -2.99445946294482      0.67445806539299      0.90792991936836
  C          -1.92427119575677     -0.11707078015907      1.32850821540817
  C          -0.65319395757229      0.43853039551073      1.39113414301990
  C          -0.46335874304440      1.76390192818526      1.03312322110085
  O          -2.23560760191511     -1.41083241187308      1.64342814424957
  C          -1.24681874104460     -2.22484109082118      2.23510952151987
  C          -0.19915675675067     -2.71478991649086      1.26822950854111
  C          -0.40901066759276     -2.56098597694512     -0.09722098598668
  C           0.52921105165326     -2.96984765705906     -1.02809398895929
  C           1.72141869657391     -3.54731756995079     -0.61232046727132
  C           1.95312214822638     -3.72377497755307      0.73344258915011
  C           1.00168659686688     -3.32131020935613      1.67697654487266
  N           1.30908238385058     -3.56319757945505      3.03745831687508
  O           0.42613559183025     -3.45359923436898      3.88855337639720
  O           2.46058448242560     -3.88436012057640      3.33148083585923
  C           0.50444747701089      2.22946295821724     -3.30469186344871
  N          -0.14115669804433      2.89229752335122     -2.19883125936600
  H           0.13711846909661      2.61913118648835     -1.26960853714625
  H           0.34253497103644      1.15213310717150     -3.25452155544239
  H           0.07246668143115      2.61590928662544     -4.22605001073089
  H           1.57424440737278      2.43402313886711     -3.28869513596091
  C          -3.78136234608599      5.69507279887647     -0.63015737761985
  O          -3.68025522706164      5.74216360904122      0.58926281313939
  C          -4.86434706555028      6.38606192048254     -1.40761456780999
  H          -5.51679802890515      6.91600972175476     -0.72033642019324
  H          -4.42649624678884      7.09254025620102     -2.10842241673868
  H          -5.44410150929730      5.65747034712915     -1.96895076952985
