47
Coordinates from ORCA-job /home/esp/scriptDevelopment/drFrankenstein/11_PCY_CHARMM/04_torsion_scanning/torsion_NH1-CT1-CG321-CG2R61/scans_PCY_conformer_30/PCY_conformer_30_opt/orca_opt E -79.895669235950
  H      -2.966750     -1.320790      1.432890
  H      -0.641170     -2.009010      4.120660
  H       1.022950     -1.103000      0.609980
  H       0.833670      1.305570     -3.470680
  H      -2.397590     -2.470600      2.675600
  H       1.491110      0.367180     -1.323030
  H      -2.809390     -2.029880     -1.018310
  H      -0.699000      0.778410     -4.254800
  H       1.128920      1.866050      4.391840
  H      -2.345060     -0.568260     -2.950160
  H      -0.201510      2.582010      2.443010
  H      -1.101680      3.660940     -1.350640
  H       0.879080     -0.447180      5.250490
  N      -0.436470      3.068730     -1.835980
  C      -0.974430      2.191860     -2.708560
  C      -2.440920      2.188240     -2.900440
  C      -0.216980      1.071900     -3.322480
  O      -2.944590      1.833110     -3.955590
  C      -0.404430      0.011880     -2.252430
  C       0.551370     -0.159180     -1.258520
  C       0.292400     -0.978320     -0.175660
  C      -0.930980     -1.630090     -0.074670
  C      -1.869260     -1.505470     -1.094070
  C      -1.605210     -0.687860     -2.173180
  O      -1.215190     -2.378950      1.051160
  C      -2.089660     -1.707970      1.957060
  C      -1.317770     -0.618670      2.663140
  C      -0.555460     -0.993950      3.762980
  C       0.310260     -0.119120      4.394260
  C       0.451110      1.175370      3.914850
  C      -0.285390      1.576440      2.824440
  C      -1.175800      0.699900      2.191890
  N      -1.914040      1.237410      1.112890
  O      -1.503540      2.294060      0.595260
  O      -2.948470      0.700530      0.720740
  C      -4.598870      2.553770     -1.835420
  N      -3.156960      2.638000     -1.833960
  H      -2.725240      2.584350     -0.915190
  H      -4.937060      1.729910     -1.203730
  H      -5.019860      3.487930     -1.460950
  H      -4.928740      2.386140     -2.859210
  C       0.888490      3.263940     -1.467230
  O       1.819850      2.665740     -1.952580
  C       1.008920      4.324250     -0.404960
  H       0.334900      4.093610      0.416660
  H       2.032690      4.363030     -0.045050
  H       0.740780      5.296010     -0.816340
47
Coordinates from ORCA-job /home/esp/scriptDevelopment/drFrankenstein/11_PCY_CHARMM/04_torsion_scanning/torsion_NH1-CT1-CG321-CG2R61/scans_PCY_conformer_30/PCY_conformer_30_opt/orca_opt E -79.895353223360
  H      -2.922275     -1.528553      1.479307
  H      -0.573594     -2.008269      4.184444
  H       1.073206     -1.126420      0.628211
  H       0.795596      1.301886     -3.432345
  H      -2.262910     -2.630514      2.719565
  H       1.480432      0.391128     -1.280986
  H      -2.748880     -2.130862     -0.977062
  H      -0.743527      0.767027     -4.191573
  H       0.999700      1.958971      4.317440
  H      -2.347841     -0.616518     -2.883147
  H      -0.338447      2.529733      2.326393
  H      -1.084072      3.714623     -1.337721
  H       0.854671     -0.328305      5.265437
  N      -0.436195      3.095737     -1.816572
  C      -0.996065      2.203738     -2.657832
  C      -2.460931      2.230384     -2.858403
  C      -0.252475      1.068905     -3.266928
  O      -2.975487      1.796820     -3.887594
  C      -0.418032      0.008510     -2.192406
  C       0.553756     -0.157244     -1.213722
  C       0.330027     -1.004715     -0.145179
  C      -0.871642     -1.696135     -0.045797
  C      -1.826069     -1.576121     -1.050710
  C      -1.598343     -0.726179     -2.113691
  O      -1.116163     -2.477272      1.069390
  C      -2.014827     -1.855638      1.992338
  C      -1.303623     -0.709407      2.670427
  C      -0.533735     -1.005285      3.788634
  C       0.280559     -0.063011      4.392415
  C       0.362773      1.217875      3.862893
  C      -0.378304      1.538407      2.748625
  C      -1.217626      0.593154      2.144754
  N      -1.956187      1.036627      1.025537
  O      -1.563545      2.058872      0.425663
  O      -2.945987      0.414529      0.622521
  C      -4.610797      2.785940     -1.854308
  N      -3.165369      2.812284     -1.853861
  H      -2.735559      2.850451     -0.932628
  H      -4.981235      2.051181     -1.136858
  H      -4.992395      3.770601     -1.587040
  H      -4.948098      2.519466     -2.854485
  C       0.896185      3.276954     -1.468184
  O       1.812235      2.638128     -1.943770
  C       1.051315      4.368495     -0.450410
  H       0.375430      4.186092      0.380827
  H       2.077796      4.393063     -0.098387
  H       0.805581      5.328837     -0.897245
47
Coordinates from ORCA-job /home/esp/scriptDevelopment/drFrankenstein/11_PCY_CHARMM/04_torsion_scanning/torsion_NH1-CT1-CG321-CG2R61/scans_PCY_conformer_30/PCY_conformer_30_opt/orca_opt E -79.896101763750
  H      -2.921095     -1.514769      1.494238
  H      -0.477800     -2.035682      4.111729
  H       1.079759     -1.127529      0.608197
  H       0.806984      1.295663     -3.452787
  H      -2.240668     -2.619568      2.717026
  H       1.493677      0.377589     -1.309231
  H      -2.740382     -2.133995     -0.999016
  H      -0.731445      0.764685     -4.216484
  H       1.014132      1.957345      4.349628
  H      -2.334023     -0.629685     -2.911888
  H      -0.422396      2.581367      2.446119
  H      -1.080262      3.683848     -1.332416
  H       0.954975     -0.369191      5.205918
  N      -0.430553      3.073305     -1.821950
  C      -0.986167      2.192349     -2.674500
  C      -2.447803      2.223577     -2.887659
  C      -0.241096      1.061124     -3.289927
  O      -2.957367      1.782045     -3.924524
  C      -0.403103     -0.006814     -2.222885
  C       0.567515     -0.171407     -1.242710
  C       0.339737     -1.010352     -0.168311
  C      -0.865553     -1.693876     -0.064734
  C      -1.815511     -1.583003     -1.075170
  C      -1.583490     -0.740433     -2.143304
  O      -1.114831     -2.465789      1.057677
  C      -2.004943     -1.839117      1.992972
  C      -1.289045     -0.696977      2.677427
  C      -0.473991     -1.017522      3.756254
  C       0.343271     -0.081811      4.367098
  C       0.378028      1.220941      3.888591
  C      -0.416430      1.570847      2.820992
  C      -1.258602      0.632286      2.209391
  N      -2.067273      1.121251      1.162314
  O      -1.755331      2.210554      0.632354
  O      -3.102191      0.531038      0.809528
  C      -4.609658      2.784466     -1.909617
  N      -3.163019      2.803885     -1.894877
  H      -2.741832      2.838853     -0.969856
  H      -4.989532      2.048124     -1.198858
  H      -4.987581      3.769028     -1.641912
  H      -4.940171      2.523409     -2.913405
  C       0.900154      3.248780     -1.464883
  O       1.819735      2.610257     -1.946366
  C       1.055141      4.326472     -0.438972
  H       0.372647      4.140130      0.385273
  H       2.079433      4.341707     -0.081224
  H       0.816986      5.290564     -0.879279
47
Coordinates from ORCA-job /home/esp/scriptDevelopment/drFrankenstein/11_PCY_CHARMM/04_torsion_scanning/torsion_NH1-CT1-CG321-CG2R61/scans_PCY_conformer_30/PCY_conformer_30_opt/orca_opt E -79.896573021370
  H      -2.967106     -1.396078      1.458021
  H      -0.617905     -2.052776      4.124010
  H       1.032802     -1.143772      0.616296
  H       0.832923      1.305628     -3.446211
  H      -2.360308     -2.539876      2.685990
  H       1.496754      0.349526     -1.300267
  H      -2.795997     -2.063189     -1.022354
  H      -0.701580      0.778178     -4.223789
  H       1.076414      1.854456      4.426613
  H      -2.338547     -0.573386     -2.934021
  H      -0.270467      2.560513      2.485378
  H      -1.085502      3.718435     -1.380188
  H       0.870698     -0.470029      5.267066
  N      -0.427387      3.104220     -1.851122
  C      -0.972487      2.200065     -2.686640
  C      -2.435366      2.191800     -2.875454
  C      -0.217295      1.072635     -3.293341
  O      -2.943253      1.766486     -3.917722
  C      -0.398773      0.002336     -2.232461
  C       0.558998     -0.180529     -1.242324
  C       0.303369     -1.012840     -0.168374
  C      -0.918631     -1.667477     -0.074351
  C      -1.856567     -1.536669     -1.093014
  C      -1.595227     -0.703931     -2.161569
  O      -1.202044     -2.427329      1.047492
  C      -2.076420     -1.766475      1.971267
  C      -1.318191     -0.666388      2.676376
  C      -0.550110     -1.034466      3.774416
  C       0.298217     -0.146452      4.413081
  C       0.414511      1.154469      3.944072
  C      -0.329569      1.549938      2.856438
  C      -1.202403      0.660039      2.216162
  N      -1.943663      1.194301      1.144566
  O      -1.537167      2.251306      0.618151
  O      -2.978649      0.648042      0.734174
  C      -4.604234      2.619446     -1.849787
  N      -3.159864      2.689676     -1.844539
  H      -2.734493      2.674988     -0.921041
  H      -4.951043      1.823963     -1.187285
  H      -5.014275      3.570989     -1.514894
  H      -4.933974      2.412987     -2.866253
  C       0.901161      3.319058     -1.507609
  O       1.831470      2.697712     -1.986908
  C       1.039449      4.417168     -0.498130
  H       0.371326      4.227684      0.338155
  H       2.066947      4.464159     -0.151629
  H       0.772490      5.369430     -0.950467
47
Coordinates from ORCA-job /home/esp/scriptDevelopment/drFrankenstein/11_PCY_CHARMM/04_torsion_scanning/torsion_NH1-CT1-CG321-CG2R61/scans_PCY_conformer_30/PCY_conformer_30_opt/orca_opt E -79.896721320060
  H      -2.940178     -1.437223      1.466588
  H      -0.587063     -2.033871      4.143591
  H       1.046179     -1.113902      0.622625
  H       0.807757      1.304447     -3.452065
  H      -2.312205     -2.567289      2.698529
  H       1.479837      0.388290     -1.294617
  H      -2.767194     -2.104354     -1.011207
  H      -0.731663      0.772904     -4.217543
  H       1.053031      1.900551      4.398174
  H      -2.338854     -0.607838     -2.924568
  H      -0.290705      2.558961      2.437038
  H      -1.087069      3.726993     -1.382102
  H       0.874678     -0.414829      5.270964
  N      -0.436767      3.096186     -1.841497
  C      -0.988657      2.202253     -2.683085
  C      -2.449790      2.213082     -2.879205
  C      -0.241104      1.070959     -3.291164
  O      -2.956133      1.806340     -3.929041
  C      -0.409212      0.004069     -2.224927
  C       0.552167     -0.159744     -1.235462
  C       0.313446     -0.996546     -0.161274
  C      -0.895529     -1.674957     -0.066643
  C      -1.838127     -1.559946     -1.082760
  C      -1.593418     -0.722583     -2.151790
  O      -1.162370     -2.441081      1.054653
  C      -2.042974     -1.792239      1.979640
  C      -1.299594     -0.676800      2.673950
  C      -0.531126     -1.019702      3.779814
  C       0.302008     -0.111113      4.409558
  C       0.402670      1.184695      3.922711
  C      -0.340038      1.554027      2.824835
  C      -1.196458      0.642307      2.192830
  N      -1.932661      1.143797      1.102962
  O      -1.547588      2.205221      0.570254
  O      -2.960797      0.579705      0.701425
  C      -4.618107      2.688272     -1.871568
  N      -3.172980      2.727559     -1.855419
  H      -2.754956      2.707332     -0.928683
  H      -4.986418      1.900743     -1.211211
  H      -5.009665      3.649053     -1.540234
  H      -4.944318      2.487698     -2.890352
  C       0.890441      3.279348     -1.476490
  O       1.810795      2.629552     -1.935424
  C       1.039731      4.368394     -0.458259
  H       0.351985      4.192805      0.365459
  H       2.061741      4.386293     -0.093086
  H       0.806282      5.330151     -0.909943
47
Coordinates from ORCA-job /home/esp/scriptDevelopment/drFrankenstein/11_PCY_CHARMM/04_torsion_scanning/torsion_NH1-CT1-CG321-CG2R61/scans_PCY_conformer_30/PCY_conformer_30_opt/orca_opt E -79.896775662200
  H      -2.947420     -1.444034      1.471984
  H      -0.577632     -2.043230      4.136604
  H       1.039627     -1.127398      0.629325
  H       0.819356      1.302034     -3.439079
  H      -2.315640     -2.576077      2.700267
  H       1.482616      0.377463     -1.283395
  H      -2.771223     -2.105843     -1.017520
  H      -0.715165      0.769181     -4.213188
  H       1.052023      1.895780      4.389224
  H      -2.333981     -0.605442     -2.926164
  H      -0.306851      2.554815      2.438713
  H      -1.086101      3.733711     -1.390681
  H       0.886795     -0.422358      5.257580
  N      -0.433620      3.102624     -1.847301
  C      -0.981881      2.200907     -2.682795
  C      -2.443665      2.201208     -2.872179
  C      -0.230317      1.068262     -3.284079
  O      -2.954347      1.764744     -3.909011
  C      -0.404600      0.000225     -2.219721
  C       0.553300     -0.167967     -1.227896
  C       0.309345     -1.006280     -0.156228
  C      -0.901486     -1.682105     -0.066572
  C      -1.840835     -1.563251     -1.085165
  C      -1.590907     -0.723807     -2.151564
  O      -1.172187     -2.450471      1.052572
  C      -2.048729     -1.800101      1.981614
  C      -1.302769     -0.685267      2.673985
  C      -0.527169     -1.028125      3.774871
  C       0.307515     -0.118311      4.400864
  C       0.401211      1.178951      3.916161
  C      -0.349717      1.548749      2.824004
  C      -1.208003      0.635812      2.195659
  N      -1.956880      1.137708      1.114454
  O      -1.577340      2.196923      0.572449
  O      -2.982154      0.565378      0.714775
  C      -4.607740      2.697898     -1.862715
  N      -3.162552      2.743047     -1.860194
  H      -2.735188      2.757091     -0.937354
  H      -4.967204      1.929334     -1.175750
  H      -4.999441      3.666848     -1.557165
  H      -4.942051      2.465168     -2.872055
  C       0.892341      3.294231     -1.482288
  O       1.817429      2.652316     -1.944089
  C       1.036346      4.391884     -0.473816
  H       0.352682      4.217122      0.353216
  H       2.059313      4.420516     -0.112278
  H       0.793923      5.348112     -0.932099
47
Coordinates from ORCA-job /home/esp/scriptDevelopment/drFrankenstein/11_PCY_CHARMM/04_torsion_scanning/torsion_NH1-CT1-CG321-CG2R61/scans_PCY_conformer_30/PCY_conformer_30_opt/orca_opt E -79.896803133640
  H      -2.953595     -1.434299      1.470144
  H      -0.590976     -2.041564      4.136824
  H       1.031571     -1.126040      0.632952
  H       0.822068      1.302764     -3.436528
  H      -2.325774     -2.567907      2.698880
  H       1.479770      0.378498     -1.278931
  H      -2.775221     -2.103882     -1.023548
  H      -0.711369      0.770891     -4.213711
  H       1.062265      1.887503      4.388430
  H      -2.332689     -0.604018     -2.931451
  H      -0.289264      2.553007      2.435081
  H      -1.085481      3.743453     -1.401555
  H       0.881398     -0.428768      5.258555
  N      -0.432829      3.107486     -1.851372
  C      -0.980186      2.203258     -2.684732
  C      -2.442086      2.201239     -2.872384
  C      -0.228080      1.069697     -3.283706
  O      -2.953693      1.764204     -3.908989
  C      -0.404948      0.001181     -2.220206
  C       0.550373     -0.167008     -1.225880
  C       0.303488     -1.005046     -0.154636
  C      -0.907792     -1.680474     -0.068070
  C      -1.844369     -1.561873     -1.089194
  C      -1.591410     -0.722758     -2.155179
  O      -1.182463     -2.447941      1.050918
  C      -2.056266     -1.793083      1.979991
  C      -1.305967     -0.680754      2.672041
  C      -0.534026     -1.027072      3.774427
  C       0.305256     -0.121817      4.400822
  C       0.407795      1.174292      3.915081
  C      -0.339045      1.547703      2.821475
  C      -1.202514      0.639839      2.192694
  N      -1.945348      1.147414      1.110066
  O      -1.557628      2.205278      0.571204
  O      -2.976063      0.585323      0.709303
  C      -4.606385      2.679187     -1.854335
  N      -3.161476      2.732258     -1.855256
  H      -2.731622      2.740490     -0.933336
  H      -4.959730      1.901125     -1.174867
  H      -5.002167      3.642686     -1.537334
  H      -4.942213      2.455352     -2.865187
  C       0.891839      3.297750     -1.480800
  O       1.817757      2.650995     -1.934693
  C       1.033273      4.397021     -0.474055
  H       0.345433      4.225334      0.350104
  H       2.054563      4.424311     -0.107761
  H       0.794856      5.352731     -0.935314
47
Coordinates from ORCA-job /home/esp/scriptDevelopment/drFrankenstein/11_PCY_CHARMM/04_torsion_scanning/torsion_NH1-CT1-CG321-CG2R61/scans_PCY_conformer_30/PCY_conformer_30_opt/orca_opt E -79.896819033170
  H      -2.956810     -1.425168      1.472299
  H      -0.590163     -2.039212      4.134302
  H       1.023134     -1.122074      0.637905
  H       0.823729      1.301741     -3.433941
  H      -2.330032     -2.560564      2.700340
  H       1.474964      0.382038     -1.273648
  H      -2.777302     -2.106136     -1.029429
  H      -0.708507      0.770541     -4.214667
  H       1.073119      1.885896      4.382702
  H      -2.330781     -0.607346     -2.937436
  H      -0.280409      2.554409      2.431489
  H      -1.084921      3.753879     -1.416445
  H       0.888293     -0.430116      5.253164
  N      -0.432814      3.110025     -1.855586
  C      -0.979166      2.204326     -2.687914
  C      -2.440981      2.201829     -2.875306
  C      -0.226959      1.069362     -3.283715
  O      -2.952821      1.769735     -3.914042
  C      -0.405960      0.000636     -2.220786
  C       0.546421     -0.165215     -1.223284
  C       0.297363     -1.002662     -0.152081
  C      -0.913353     -1.679532     -0.068919
  C      -1.846875     -1.563199     -1.092969
  C      -1.591527     -0.724835     -2.159070
  O      -1.191151     -2.446660      1.049717
  C      -2.059694     -1.786814      1.980656
  C      -1.304028     -0.676918      2.670446
  C      -0.531214     -1.024924      3.771654
  C       0.311396     -0.121651      4.396449
  C       0.416147      1.174163      3.910542
  C      -0.331819      1.549391      2.818399
  C      -1.198645      0.643591      2.191074
  N      -1.942716      1.153514      1.110830
  O      -1.554541      2.211487      0.572507
  O      -2.972333      0.590718      0.708269
  C      -4.605262      2.671732     -1.853268
  N      -3.160575      2.726714     -1.855254
  H      -2.729402      2.728332     -0.933647
  H      -4.956611      1.884906     -1.182822
  H      -5.001384      3.631043     -1.524296
  H      -4.941957      2.459179     -2.866263
  C       0.889102      3.293426     -1.471838
  O       1.815458      2.638578     -1.913125
  C       1.027011      4.394330     -0.466420
  H       0.331026      4.227879      0.352032
  H       2.045099      4.417264     -0.090964
  H       0.797481      5.350335     -0.931661
47
Coordinates from ORCA-job /home/esp/scriptDevelopment/drFrankenstein/11_PCY_CHARMM/04_torsion_scanning/torsion_NH1-CT1-CG321-CG2R61/scans_PCY_conformer_30/PCY_conformer_30_opt/orca_opt E -79.896828505990
  H      -2.967095     -1.417173      1.475421
  H      -0.600419     -2.039189      4.135032
  H       1.006221     -1.127955      0.652135
  H       0.832127      1.300259     -3.417342
  H      -2.343698     -2.554884      2.703792
  H       1.469119      0.379355     -1.254315
  H      -2.783830     -2.110374     -1.039398
  H      -0.695264      0.769038     -4.208249
  H       1.090777      1.875190      4.366417
  H      -2.325914     -0.608880     -2.942998
  H      -0.258996      2.544825      2.412538
  H      -1.084793      3.776419     -1.442882
  H       0.890167     -0.436220      5.246417
  N      -0.431867      3.121469     -1.863828
  C      -0.974977      2.205838     -2.687323
  C      -2.437185      2.196138     -2.870974
  C      -0.219732      1.068468     -3.274322
  O      -2.950609      1.757515     -3.906224
  C      -0.405762     -0.001495     -2.213571
  C       0.540540     -0.168348     -1.210483
  C       0.285235     -1.007534     -0.142119
  C      -0.925758     -1.684949     -0.067732
  C      -1.853050     -1.567455     -1.097033
  C      -1.591206     -0.727549     -2.160522
  O      -1.211730     -2.452964      1.048515
  C      -2.070981     -1.783949      1.981985
  C      -1.305663     -0.677781      2.666327
  C      -0.534460     -1.026796      3.768263
  C       0.314915     -0.126923      4.388834
  C       0.428394      1.166128      3.897694
  C      -0.317612      1.542192      2.804573
  C      -1.191162      0.639930      2.181173
  N      -1.931219      1.150517      1.098935
  O      -1.542790      2.210378      0.564462
  O      -2.965298      0.593988      0.699389
  C      -4.599663      2.663112     -1.843080
  N      -3.155474      2.724908     -1.851980
  H      -2.719160      2.732210     -0.932338
  H      -4.943866      1.871668     -1.174224
  H      -4.997765      3.619451     -1.508099
  H      -4.940343      2.452617     -2.855177
  C       0.885858      3.304287     -1.465415
  O       1.815291      2.642202     -1.888873
  C       1.015321      4.415208     -0.469909
  H       0.312027      4.256836      0.344030
  H       2.030017      4.441250     -0.085469
  H       0.790361      5.366994     -0.946073
47
Coordinates from ORCA-job /home/esp/scriptDevelopment/drFrankenstein/11_PCY_CHARMM/04_torsion_scanning/torsion_NH1-CT1-CG321-CG2R61/scans_PCY_conformer_30/PCY_conformer_30_opt/orca_opt E -79.896837717520
  H      -2.966115     -1.423350      1.478619
  H      -0.591963     -2.041025      4.132522
  H       1.006561     -1.126826      0.654165
  H       0.831441      1.299584     -3.415607
  H      -2.338519     -2.559291      2.706256
  H       1.467750      0.381647     -1.251630
  H      -2.780602     -2.116143     -1.039668
  H      -0.695577      0.767899     -4.206864
  H       1.089682      1.877424      4.363468
  H      -2.324437     -0.613358     -2.942844
  H      -0.267293      2.545728      2.414254
  H      -1.083926      3.778523     -1.445061
  H       0.897294     -0.435322      5.241716
  N      -0.431495      3.122327     -1.864912
  C      -0.975394      2.205836     -2.686838
  C      -2.437634      2.198070     -2.872260
  C      -0.220437      1.067755     -3.272834
  O      -2.950838      1.755469     -3.905722
  C      -0.406039     -0.002172     -2.211888
  C       0.540100     -0.167691     -1.208420
  C       0.285674     -1.007513     -0.140340
  C      -0.924135     -1.687124     -0.066704
  C      -1.850957     -1.571204     -1.096601
  C      -1.590152     -0.730443     -2.159726
  O      -1.209498     -2.455963      1.049219
  C      -2.068419     -1.788011      1.983792
  C      -1.304690     -0.679999      2.667116
  C      -0.529738     -1.028043      3.766714
  C       0.318930     -0.126634      4.386030
  C       0.427814      1.167176      3.895850
  C      -0.322229      1.542479      2.805220
  C      -1.195320      0.638758      2.183255
  N      -1.940195      1.149021      1.103842
  O      -1.554183      2.208677      0.567123
  O      -2.971208      0.587689      0.703159
  C      -4.599939      2.671608     -1.847204
  N      -3.155652      2.732527     -1.855858
  H      -2.719558      2.743316     -0.936154
  H      -4.945002      1.881969     -1.176627
  H      -4.997535      3.628853     -1.514360
  H      -4.940514      2.459160     -2.858923
  C       0.886098      3.302621     -1.464842
  O       1.814427      2.637258     -1.885443
  C       1.016369      4.414261     -0.470188
  H       0.312235      4.257359      0.343302
  H       2.030782      4.439122     -0.084954
  H       0.793066      5.365965     -0.947171
47
Coordinates from ORCA-job /home/esp/scriptDevelopment/drFrankenstein/11_PCY_CHARMM/04_torsion_scanning/torsion_NH1-CT1-CG321-CG2R61/scans_PCY_conformer_30/PCY_conformer_30_opt/orca_opt E -79.896840846640
  H      -2.966533     -1.425411      1.480412
  H      -0.589658     -2.043396      4.131744
  H       1.005357     -1.127639      0.656841
  H       0.831696      1.299164     -3.412378
  H      -2.338218     -2.560866      2.708025
  H       1.466610      0.381976     -1.247806
  H      -2.779678     -2.119475     -1.040103
  H      -0.694605      0.767119     -4.204704
  H       1.091018      1.875403      4.362968
  H      -2.323339     -0.615594     -2.942520
  H      -0.268124      2.544219      2.415558
  H      -1.084441      3.780611     -1.447042
  H       0.900156     -0.437770      5.240405
  N      -0.431622      3.123978     -1.865643
  C      -0.975581      2.205540     -2.685379
  C      -2.437788      2.198113     -2.872235
  C      -0.220244      1.067210     -3.270322
  O      -2.950280      1.753954     -3.905002
  C      -0.406115     -0.003034     -2.209738
  C       0.539420     -0.168223     -1.205634
  C       0.284861     -1.008701     -0.138084
  C      -0.924456     -1.689268     -0.065550
  C      -1.850482     -1.573663     -1.096191
  C      -1.589599     -0.732304     -2.158836
  O      -1.210639     -2.458534      1.049934
  C      -2.068385     -1.790059      1.984921
  C      -1.304170     -0.681914      2.667619
  C      -0.528050     -1.030231      3.766314
  C       0.320912     -0.128905      4.385385
  C       0.428865      1.165188      3.895708
  C      -0.322443      1.540724      2.805989
  C      -1.195671      0.637018      2.184299
  N      -1.941719      1.147225      1.105427
  O      -1.556762      2.207364      0.569047
  O      -2.971052      0.583853      0.703706
  C      -4.600281      2.676168     -1.850363
  N      -3.155890      2.736467     -1.857594
  H      -2.720984      2.748111     -0.937493
  H      -4.946659      1.886270     -1.180723
  H      -4.997907      3.633234     -1.517037
  H      -4.939962      2.464812     -2.862584
  C       0.885902      3.304082     -1.465115
  O       1.814093      2.637700     -1.884095
  C       1.016131      4.418968     -0.473897
  H       0.313284      4.263373      0.340960
  H       2.030985      4.446064     -0.089993
  H       0.791076      5.369046     -0.953221
47
Coordinates from ORCA-job /home/esp/scriptDevelopment/drFrankenstein/11_PCY_CHARMM/04_torsion_scanning/torsion_NH1-CT1-CG321-CG2R61/scans_PCY_conformer_30/PCY_conformer_30_opt/orca_opt E -79.896842733890
  H      -2.968307     -1.426042      1.482339
  H      -0.589204     -2.045333      4.130970
  H       1.002091     -1.128793      0.661074
  H       0.832903      1.298636     -3.407565
  H      -2.339843     -2.561057      2.710156
  H       1.464712      0.382214     -1.241844
  H      -2.779621     -2.122922     -1.041762
  H      -0.692169      0.766203     -4.201915
  H       1.094893      1.872036      4.360454
  H      -2.321763     -0.617633     -2.942929
  H      -0.265393      2.541805      2.414319
  H      -1.085400      3.784802     -1.451737
  H       0.902970     -0.440913      5.238246
  N      -0.431794      3.127125     -1.867473
  C      -0.975306      2.205550     -2.684033
  C      -2.437441      2.197265     -2.871655
  C      -0.219226      1.066673     -3.266897
  O      -2.949586      1.749205     -3.902592
  C      -0.406136     -0.004018     -2.206957
  C       0.537989     -0.168913     -1.201501
  C       0.282536     -1.010195     -0.134775
  C      -0.926301     -1.691775     -0.064367
  C      -1.850784     -1.576334     -1.096391
  C      -1.589039     -0.734258     -2.158279
  O      -1.214362     -2.461480      1.050451
  C      -2.069837     -1.791285      1.985983
  C      -1.303906     -0.683390      2.667337
  C      -0.527080     -1.032249      3.765384
  C       0.323198     -0.131654      4.383741
  C       0.431699      1.162346      3.893892
  C      -0.320323      1.538357      2.804797
  C      -1.194684      0.635350      2.183829
  N      -1.940984      1.145848      1.105012
  O      -1.556246      2.206257      0.569317
  O      -2.969850      0.582154      0.702925
  C      -4.599919      2.678957     -1.852238
  N      -3.155474      2.740241     -1.858999
  H      -2.721332      2.753584     -0.938754
  H      -4.946439      1.887702     -1.184211
  H      -4.998313      3.635071     -1.517126
  H      -4.939151      2.469404     -2.864953
  C       0.885214      3.307322     -1.465223
  O       1.813401      2.637858     -1.879087
  C       1.014176      4.425247     -0.477120
  H       0.311866      4.270590      0.338405
  H       2.029069      4.454708     -0.093477
  H       0.787527      5.373704     -0.958789
47
Coordinates from ORCA-job /home/esp/scriptDevelopment/drFrankenstein/11_PCY_CHARMM/04_torsion_scanning/torsion_NH1-CT1-CG321-CG2R61/scans_PCY_conformer_30/PCY_conformer_30_opt/orca_opt E -79.896843642360
  H      -2.968929     -1.426994      1.483085
  H      -0.589197     -2.046332      4.130739
  H       1.000494     -1.128780      0.663388
  H       0.833024      1.298217     -3.405435
  H      -2.340312     -2.561486      2.711174
  H       1.463311      0.383044     -1.238635
  H      -2.778918     -2.125830     -1.042806
  H      -0.691727      0.765812     -4.200334
  H       1.095938      1.870571      4.359790
  H      -2.320755     -0.619679     -2.943356
  H      -0.264245      2.540557      2.413783
  H      -1.085855      3.786505     -1.453262
  H       0.903638     -0.442299      5.237654
  N      -0.431886      3.128287     -1.867553
  C      -0.975337      2.205552     -2.682935
  C      -2.437333      2.197147     -2.870868
  C      -0.219177      1.066352     -3.265115
  O      -2.949496      1.747410     -3.901017
  C      -0.406253     -0.004707     -2.205593
  C       0.537093     -0.169012     -1.199341
  C       0.281437     -1.010756     -0.133009
  C      -0.926858     -1.693364     -0.063811
  C      -1.850483     -1.578472     -1.096659
  C      -1.588556     -0.735973     -2.158171
  O      -1.215751     -2.463329      1.050700
  C      -2.070257     -1.792321      1.986367
  C      -1.303737     -0.684319      2.667047
  C      -0.526854     -1.033300      3.765046
  C       0.323792     -0.132944      4.383245
  C       0.432518      1.161026      3.893348
  C      -0.319508      1.537130      2.804278
  C      -1.194090      0.634338      2.183432
  N      -1.939997      1.144937      1.104249
  O      -1.555254      2.205542      0.569255
  O      -2.968995      0.581617      0.702122
  C      -4.599935      2.681114     -1.853283
  N      -3.155423      2.742384     -1.859186
  H      -2.722282      2.755282     -0.938590
  H      -4.947168      1.887858     -1.187964
  H      -4.998413      3.636188     -1.515365
  H      -4.938656      2.474777     -2.866815
  C       0.884855      3.308108     -1.464390
  O       1.812995      2.637413     -1.876403
  C       1.013910      4.428925     -0.479554
  H       0.313327      4.275187      0.337633
  H       2.029397      4.460810     -0.097670
  H       0.784937      5.375775     -0.963237
47
Coordinates from ORCA-job /home/esp/scriptDevelopment/drFrankenstein/11_PCY_CHARMM/04_torsion_scanning/torsion_NH1-CT1-CG321-CG2R61/scans_PCY_conformer_30/PCY_conformer_30_opt/orca_opt E -79.896844342750
  H      -2.969168     -1.426625      1.482907
  H      -0.589510     -2.046713      4.130415
  H       0.999758     -1.128724      0.664171
  H       0.833138      1.297951     -3.405059
  H      -2.341029     -2.561070      2.711214
  H       1.462818      0.383225     -1.237565
  H      -2.778638     -2.127006     -1.043598
  H      -0.691655      0.765624     -4.199879
  H       1.095749      1.870069      4.360457
  H      -2.320172     -0.620612     -2.943974
  H      -0.263828      2.540417      2.414208
  H      -1.086247      3.786604     -1.453554
  H       0.903329     -0.442990      5.237736
  N      -0.431891      3.128651     -1.867624
  C      -0.975269      2.205406     -2.682611
  C      -2.437150      2.196321     -2.869878
  C      -0.219075      1.066137     -3.264660
  O      -2.949779      1.744955     -3.899172
  C      -0.406130     -0.005167     -2.205409
  C       0.536782     -0.169170     -1.198728
  C       0.280943     -1.011007     -0.132496
  C      -0.927157     -1.693969     -0.063867
  C      -1.850336     -1.579390     -1.097146
  C      -1.588214     -0.736838     -2.158560
  O      -1.216571     -2.463921      1.050576
  C      -2.070581     -1.792284      1.986152
  C      -1.303652     -0.684444      2.666708
  C      -0.527011     -1.033653      3.764833
  C       0.323618     -0.133467      4.383297
  C       0.432456      1.160613      3.893704
  C      -0.319277      1.536915      2.804489
  C      -1.193672      0.634234      2.183311
  N      -1.939063      1.144982      1.103790
  O      -1.554135      2.205591      0.569215
  O      -2.968168      0.581964      0.701586
  C      -4.599733      2.681809     -1.853221
  N      -3.155190      2.743229     -1.858871
  H      -2.722668      2.755767     -0.938004
  H      -4.947236      1.886618     -1.190328
  H      -4.998158      3.635912     -1.512566
  H      -4.938365      2.478376     -2.867368
  C       0.884783      3.308922     -1.464756
  O       1.812872      2.637367     -1.875607
  C       1.013923      4.430509     -0.480817
  H       0.315320      4.275865      0.337906
  H       2.030091      4.464310     -0.100897
  H       0.782179      5.376678     -0.964479
47
Coordinates from ORCA-job /home/esp/scriptDevelopment/drFrankenstein/11_PCY_CHARMM/04_torsion_scanning/torsion_NH1-CT1-CG321-CG2R61/scans_PCY_conformer_30/PCY_conformer_30_opt/orca_opt E -79.896844819710
  H      -2.968830     -1.426800      1.482291
  H      -0.589515     -2.046807      4.130217
  H       0.999721     -1.127947      0.664308
  H       0.832831      1.297707     -3.405833
  H      -2.340958     -2.561226      2.710744
  H       1.462491      0.383916     -1.237533
  H      -2.777813     -2.128309     -1.044244
  H      -0.692349      0.765491     -4.199993
  H       1.093945      1.870673      4.361720
  H      -2.319616     -0.621875     -2.944716
  H      -0.265015      2.540813      2.414949
  H      -1.086136      3.785936     -1.453029
  H       0.902334     -0.442708      5.238261
  N      -0.431717      3.128241     -1.867397
  C      -0.975306      2.205217     -2.682616
  C      -2.437083      2.195824     -2.868850
  C      -0.219333      1.065933     -3.264972
  O      -2.950509      1.743050     -3.897294
  C      -0.406046     -0.005428     -2.205735
  C       0.536683     -0.168875     -1.198811
  C       0.281006     -1.010698     -0.132514
  C      -0.926790     -1.694196     -0.064148
  C      -1.849778     -1.580233     -1.097660
  C      -1.587795     -0.737699     -2.159117
  O      -1.216159     -2.464134      1.050352
  C      -2.070353     -1.792449      1.985728
  C      -1.303717     -0.684542      2.666496
  C      -0.527310     -1.033663      3.764828
  C       0.322752     -0.133237      4.383708
  C       0.431206      1.161007      3.894491
  C      -0.320208      1.537217      2.805018
  C      -1.193959      0.634247      2.183360
  N      -1.938917      1.144953      1.103494
  O      -1.553769      2.205386      0.568899
  O      -2.967949      0.581956      0.701122
  C      -4.599458      2.682737     -1.852412
  N      -3.154910      2.744121     -1.858331
  H      -2.722598      2.756277     -0.937289
  H      -4.946998      1.885525     -1.191937
  H      -4.997435      3.635906     -1.508728
  H      -4.938458      2.482337     -2.867047
  C       0.885008      3.308838     -1.465273
  O       1.812964      2.636974     -1.876068
  C       1.014720      4.430775     -0.481836
  H       0.318351      4.275012      0.338600
  H       2.031693      4.466232     -0.104242
  H       0.780114      5.376495     -0.964980
47
Coordinates from ORCA-job /home/esp/scriptDevelopment/drFrankenstein/11_PCY_CHARMM/04_torsion_scanning/torsion_NH1-CT1-CG321-CG2R61/scans_PCY_conformer_30/PCY_conformer_30_opt/orca_opt E -79.896845002370
  H      -2.968384     -1.427216      1.481869
  H      -0.589309     -2.046898      4.130245
  H       1.000146     -1.127461      0.664041
  H       0.832545      1.297619     -3.406615
  H      -2.340556     -2.561705      2.710328
  H       1.462549      0.384268     -1.238034
  H      -2.777233     -2.128839     -1.044311
  H      -0.692930      0.765403     -4.200257
  H       1.092312      1.871327      4.362783
  H      -2.319420     -0.622465     -2.944939
  H      -0.266470      2.541144      2.415715
  H      -1.085821      3.785259     -1.452412
  H       0.901580     -0.442303      5.238840
  N      -0.431525      3.127741     -1.867269
  C      -0.975391      2.205013     -2.682701
  C      -2.437142      2.195667     -2.868394
  C      -0.219559      1.065800     -3.265407
  O      -2.950995      1.742507     -3.896528
  C      -0.405985     -0.005500     -2.206059
  C       0.536826     -0.168653     -1.199155
  C       0.281380     -1.010424     -0.132759
  C      -0.926274     -1.694166     -0.064308
  C      -1.849340     -1.580532     -1.097785
  C      -1.587571     -0.738041     -2.159330
  O      -1.215353     -2.464102      1.050271
  C      -2.069977     -1.792723      1.985515
  C      -1.303810     -0.684714      2.666597
  C      -0.527468     -1.033673      3.765023
  C       0.322048     -0.132944      4.384207
  C       0.430038      1.161427      3.895248
  C      -0.321273      1.537475      2.805643
  C      -1.194476      0.634177      2.183655
  N      -1.939370      1.144763      1.103674
  O      -1.554220      2.205134      0.568966
  O      -2.968183      0.581519      0.701151
  C      -4.599345      2.683462     -1.851894
  N      -3.154799      2.744694     -1.858109
  H      -2.722437      2.756643     -0.937034
  H      -4.946852      1.885031     -1.192850
  H      -4.996893      3.636090     -1.506283
  H      -4.938715      2.484941     -2.866775
  C       0.885353      3.308691     -1.466029
  O       1.813235      2.637020     -1.877361
  C       1.015488      4.430557     -0.482562
  H       0.320359      4.274001      0.338789
  H       2.032920      4.466770     -0.106304
  H       0.779329      5.376189     -0.965112
