47
Coordinates from ORCA-job /home/esp/scriptDevelopment/drFrankenstein/11_PCY_CHARMM/04_torsion_scanning/torsion_NH1-CT1-CG321-CG2R61/scans_PCY_conformer_30/PCY_conformer_30_opt/orca_opt E -79.896845002370
  H          -2.96838392956593     -1.42721587861815      1.48186878919327
  H          -0.58930853988274     -2.04689765352033      4.13024481579233
  H           1.00014554820511     -1.12746147195191      0.66404081878413
  H           0.83254535653282      1.29761920363093     -3.40661545462067
  H          -2.34055634101278     -2.56170483368943      2.71032759254998
  H           1.46254893610480      0.38426768442553     -1.23803383009407
  H          -2.77723280902568     -2.12883946163385     -1.04431100369588
  H          -0.69292956417236      0.76540326801125     -4.20025706058475
  H           1.09231238983194      1.87132719850924      4.36278277365419
  H          -2.31942021540479     -0.62246544211085     -2.94493920720191
  H          -0.26646964803706      2.54114355908461      2.41571496348816
  H          -1.08582087853273      3.78525905580778     -1.45241150428560
  H           0.90158038698799     -0.44230258171370      5.23883990411828
  N          -0.43152535273701      3.12774109150956     -1.86726885876908
  C          -0.97539147467637      2.20501271843578     -2.68270130232574
  C          -2.43714175836511      2.19566669830624     -2.86839418902814
  C          -0.21955893073716      1.06579958993685     -3.26540673118880
  O          -2.95099481316317      1.74250686146426     -3.89652794727409
  C          -0.40598519545665     -0.00549953515196     -2.20605869326666
  C           0.53682558327797     -0.16865331303550     -1.19915523194750
  C           0.28137968752368     -1.01042396446985     -0.13275914538477
  C          -0.92627441141122     -1.69416624316936     -0.06430843250973
  C          -1.84934028186205     -1.58053156627416     -1.09778529086761
  C          -1.58757071340044     -0.73804085309991     -2.15933024928606
  O          -1.21535338199433     -2.46410187077941      1.05027062981054
  C          -2.06997721111237     -1.79272312490712      1.98551545788380
  C          -1.30380982137484     -0.68471393125639      2.66659728939327
  C          -0.52746842176562     -1.03367264592907      3.76502317313068
  C           0.32204766007635     -0.13294428821623      4.38420695724396
  C           0.43003800846657      1.16142655391687      3.89524792729713
  C          -0.32127285069816      1.53747458120995      2.80564312989416
  C          -1.19447642619428      0.63417734795895      2.18365461564525
  N          -1.93937017028623      1.14476268080099      1.10367362670640
  O          -1.55422034170496      2.20513356356728      0.56896568490205
  O          -2.96818329754808      0.58151911130254      0.70115098260238
  C          -4.59934453723521      2.68346211575511     -1.85189399054189
  N          -3.15479882433614      2.74469352963666     -1.85810927639962
  H          -2.72243737419412      2.75664282094033     -0.93703393187609
  H          -4.94685211070901      1.88503115686964     -1.19285039191185
  H          -4.99689341327172      3.63608992960731     -1.50628327731386
  H          -4.93871491706462      2.48494079169197     -2.86677542002750
  C           0.88535331749535      3.30869122624065     -1.46602902555203
  O           1.81323501338796      2.63701982224136     -1.87736116452842
  C           1.01548844623272      4.43055700056883     -0.48256168721512
  H           0.32035906242608      4.27400078358445      0.33878907615861
  H           2.03292003896072      4.46677000186183     -0.10630378802948
  H           0.77932852142289      5.37618871265043     -0.96511212252166
