47
Coordinates from ORCA-job /home/esp/scriptDevelopment/drFrankenstein/11_PCY_CHARMM/04_torsion_scanning/torsion_NH1-CT1-CG321-CG2R61/scans_PCY_conformer_4/PCY_conformer_4_forwards/orca_scan E -79.898043859490
  H           0.57550872298404     -2.40442989416472      0.20240118474497
  H          -0.54896393121825     -0.98015257351591      3.28693706511038
  H           1.52956929859711      1.58895591909558      1.71027925472725
  H          -3.04252463027617      3.04122408065546     -0.96161358542362
  H           1.58595202754908     -2.76211842974333      1.60005105479795
  H           0.24442480843659      3.48355486552194      0.77655351727805
  H          -1.31725639722809     -1.13753558374753      0.06391912540927
  H          -2.23496374539243      4.10335716531574      0.15373030046921
  H          -3.62801177315565     -3.83327779917710      4.07439643120046
  H          -2.56669970625202      0.72525893073221     -0.87080428995573
  H          -2.70348010783275     -5.28640556133477      2.29253682877957
  H          -1.58933539909467      5.75366647677674     -2.97040240607115
  H          -2.51539638743606     -1.67423073051200      4.57273726880437
  N          -2.08188977621768      5.34264617799440     -2.16823217263038
  C          -1.48767882624836      4.17502288993738     -1.79998878194810
  C          -0.38242202719384      3.85226276384745     -2.69570130832456
  C          -2.04835865595207      3.39515918495134     -0.66152540844441
  O          -0.05238598077747      4.68751615347149     -3.56518919442701
  C          -1.24465608608780      2.23998402474512     -0.13458096123444
  C          -0.08853480087838      2.47061396690595      0.61181303913900
  C           0.63388592280613      1.42090786513566      1.13466779885388
  C           0.21126595872820      0.10413427007358      0.93809851520561
  C          -0.94982416821237     -0.13515054924615      0.21365118516650
  C          -1.66458709747934      0.92875506575270     -0.31402628320061
  O           0.99881835036110     -0.85642390677800      1.50674025199607
  C           0.69476271172111     -2.21427387859196      1.27602119402846
  C          -0.50079335327444     -2.71028956553769      2.04921608848068
  C          -1.02742356554423     -1.92090160521855      3.06456850120475
  C          -2.13758445315820     -2.31318637218853      3.79101250778022
  C          -2.76101613721369     -3.52259030542493      3.51520538199253
  C          -2.25481547857486     -4.33294430086869      2.52394015339452
  C          -1.12673789169053     -3.94346371430178      1.79318450773740
  N          -0.65988374181281     -4.84673460035692      0.81005424436557
  O          -1.37098281613803     -5.80729174492194      0.50687377004078
  O           0.44019210454029     -4.66180767258889      0.28484835231042
  C           1.34100020890585      2.26746699084127     -3.40890041029974
  N           0.22693594672525      2.65886387971313     -2.58203582266312
  H          -0.07814762359446      2.01694207027861     -1.86555685098944
  H           1.09866343944291      1.36184285955190     -3.96487352205517
  H           1.54591383115929      3.07798090308746     -4.10598087543628
  H           2.22122407326514      2.08458893419218     -2.79207502845194
  C          -3.14162207859440      6.02678583118765     -1.63291295528422
  O          -3.78130028577263      5.62657670976944     -0.66937866111035
  C          -3.43065307581774      7.30902572737918     -2.35903027592592
  H          -4.27660862403040      7.80379708550572     -1.89179881866170
  H          -2.56254977980552      7.96230219001944     -2.32201728294886
  H          -3.66203900326657      7.10199580578069     -3.40085262753116
