47
Coordinates from ORCA-job /home/esp/scriptDevelopment/drFrankenstein/11_PCY_CHARMM/04_torsion_scanning/torsion_NH1-CT1-CG321-CG2R61/scans_PCY_conformer_4/PCY_conformer_4_forwards/orca_scan E -79.900782832160
  H           0.75184530961036     -2.34853730132026      0.44576189480560
  H          -0.82015952572604     -0.76304978249440      3.24217104277216
  H           1.15770172811126      1.85009234184863      1.60379125137877
  H          -2.99166033028461      2.51796611905648     -1.94826189934190
  H           1.64494469318194     -2.46154812883556      1.95960217287208
  H          -0.21431450728683      3.50019527425504      0.37696820853504
  H          -1.23467706165615     -1.30809781980675      0.00630969217973
  H          -2.99027245459001      3.53997913269607     -0.52112721198068
  H          -3.66801920389800     -3.84437176248338      4.03987174657939
  H          -2.56620156492933      0.31416811065545     -1.21567535469634
  H          -2.42315833389197     -5.35496894886665      2.51962047671209
  H          -1.29174233982874      5.92980056092001     -2.56873353012654
  H          -2.83165049691764     -1.53894527365103      4.40482932860251
  N          -1.93975551374980      5.38625472094177     -1.98652186808464
  C          -1.56494608058909      4.08054011191589     -1.96524289570079
  C          -0.39847333564979      3.84208113039125     -2.80597898504442
  C          -2.33660507512624      3.03735062443726     -1.23938400293278
  O           0.16467475734226      4.80993912672240     -3.35886590790621
  C          -1.48167880826575      2.02495011604295     -0.52083168343340
  C          -0.42884164233067      2.44599785577762      0.28931065161044
  C           0.33971951308438      1.53343603269178      0.97708687504542
  C           0.06916822402066      0.16681307852014      0.88217182877856
  C          -0.98665562843101     -0.26204378654959      0.08807139415376
  C          -1.74717298810840      0.66555933483749     -0.60607174011489
  O           0.88942373370026     -0.64688768108882      1.61300700363383
  C           0.74240316190139     -2.04498256778373      1.49987519621944
  C          -0.47193697439783     -2.58995900274881      2.20798595282561
  C          -1.17724854926054     -1.76757380962305      3.07858795494318
  C          -2.31310147371725     -2.20614060054873      3.73545568667037
  C          -2.78217089335822     -3.49727933780144      3.53426960589749
  C          -2.09739693718969     -4.34034180891575      2.68807487021160
  C          -0.94322307448153     -3.90281994045454      2.02912932864681
  N          -0.28793082398294     -4.84195794581165      1.19774233221943
  O          -0.86599270255756     -5.89648314730436      0.93162929690336
  O           0.83851046379894     -4.59168576859277      0.76695471279099
  C           1.16748400157317      2.21881094742560     -3.75967959747908
  N           0.00170629835166      2.56955676382907     -2.98789688911934
  H          -0.45861725531126      1.83246025767618     -2.47539896713932
  H           0.89941638209486      1.51392808618800     -4.54630279621796
  H           1.56193261204560      3.12981848301897     -4.20624006325114
  H           1.92732609459085      1.77009810825412     -3.11856851319229
  C          -2.94086434851083      6.06121965398740     -1.33718408581112
  O          -3.75590419023480      5.51595386334415     -0.60342177859330
  C          -2.93158652576032      7.53406108852738     -1.62836443336180
  H          -3.74610888539661      8.01092386423799     -1.09170870151521
  H          -1.98651028724015      7.97097863602466     -1.31533751612635
  H          -3.05268916074783      7.70272099045748     -2.69552008381818
