47
Coordinates from ORCA-job /home/esp/scriptDevelopment/drFrankenstein/11_PCY_CHARMM/04_torsion_scanning/torsion_NH1-CT1-CG321-CG2R61/scans_PCY_conformer_4/PCY_conformer_4_forwards/orca_scan E -79.893481080420
  H          -2.76937017894088     -2.19893736324721     -0.33406798417662
  H           0.13125347264814     -2.39880170732307      1.75764498207332
  H           1.33792302387575     -1.52255171455443     -1.63007893225098
  H           1.03861110401769      3.44920722694147      0.01342832766180
  H          -2.06451562145926     -3.80406493437743     -0.16017756395346
  H           2.04687518138355      0.81971050474448     -1.91905930858563
  H          -2.08528148423385     -0.21216555876452      0.56186700892114
  H           1.72664039816055      3.09653057008438     -1.57734415957231
  H          -1.92837693242569     -2.25053970918311      5.49866975828075
  H          -1.38244801881123      2.09698253106901      0.27847640685540
  H          -4.06820729558723     -2.62801728051299      4.30596819000817
  H          -2.00937789430285      4.38086589430841     -2.25526558408533
  H           0.18078005685551     -2.15826544492626      4.19829972386386
  N          -1.35893633143365      3.58835757862710     -2.19555705644287
  C          -0.20291818522372      3.98376832860492     -1.59573186711199
  C          -0.17421114682925      5.42735164462632     -1.38803717006351
  C           0.80420915050494      3.06829188387322     -0.98623079085784
  O          -1.15013804193711      6.12033870325403     -1.74401671418453
  C           0.37497449416672      1.63165378212662     -0.85095034744941
  C           1.14430075418397      0.59811328886134     -1.37113334802436
  C           0.75500410602462     -0.71469595611777     -1.21777227582099
  C          -0.41816137141809     -1.02859556312806     -0.53358492510494
  C          -1.18194784903051     -0.00391098386019      0.01014078577067
  C          -0.77882028588864      1.31020107384455     -0.15046256913443
  O          -0.71153627643195     -2.36425532873694     -0.44515489661518
  C          -1.94114272209145     -2.75349305255441      0.12428081529919
  C          -1.97711732946214     -2.63973801227233      1.62725228961406
  C          -0.78822802389421     -2.44269162393608      2.31990088402438
  C          -0.76161467567353     -2.30603862344214      3.69618154743105
  C          -1.94116839837877     -2.35950519017717      4.42684908610700
  C          -3.13370891605317     -2.56535275184507      3.77037947657659
  C          -3.16266750862468     -2.71455453953496      2.37933491559420
  N          -4.42707541201661     -2.94659237858296      1.78846770423367
  O          -5.43676812178862     -2.77094650048936      2.47222939245745
  O          -4.49257364942346     -3.32033265324391      0.61642244766871
  C           1.07961173902500      7.38331163150447     -0.61018299880834
  N           0.92497848100707      5.96456368561114     -0.82174077938027
  H           1.71915517204229      5.38006018116044     -0.61791142606558
  H           1.90003682074621      7.77453965517475     -1.21249857676162
  H           0.15221883634450      7.86998457878362     -0.90675165106701
  H           1.27657084290700      7.58680385282270      0.44212665560021
  C          -1.64016595723445      2.48719421520148     -2.97136329605964
  O          -0.79835827637532      1.66360596135395     -3.28691803497135
  C          -3.08036115793665      2.43223907013180     -3.39485135697806
  H          -3.25024334285148      1.52651210912003     -3.96883569762868
  H          -3.72456538148858      2.43468344880600     -2.51936798304158
  H          -3.32414784664638      3.29715547017407     -4.00691310384516
