47
Coordinates from ORCA-job /home/esp/scriptDevelopment/drFrankenstein/11_PCY_CHARMM/04_torsion_scanning/torsion_NH1-CT1-CG321-CG2R61/scans_PCY_conformer_4/PCY_conformer_4_forwards/orca_scan E -79.900397292330
  H          -3.59499770876128     -0.87644901423084      1.48901946043658
  H          -0.59578026935333     -2.73201357166428      0.89377225863985
  H          -1.48509663941357     -1.17199673709052     -2.32458889030421
  H           1.23775146290271      3.26100078057247     -0.53080586201292
  H          -3.84338978386522     -2.56654855420045      1.05956409634726
  H          -0.03527676380707      0.72371369381057     -2.95522152824146
  H          -1.63859103130271      0.29608478344569      1.68351789686523
  H           1.60140439658332      2.43821845627058     -2.06157286154592
  H           0.44133768466985     -3.36234015608045      4.98943976373425
  H          -0.23322832870111      2.16233410795853      1.06099701548127
  H          -1.81907025112181     -2.59292700875544      5.65457248524507
  H          -0.89778935680647      4.37743930442037     -3.82388990126428
  H           1.03192691996347     -3.44103096687817      2.58257005398444
  N          -0.18824853065429      3.69981592740895     -3.52137562536068
  C          -0.04258478761589      3.75111855461218     -2.17161291653115
  C          -0.93380332766596      4.73664404446852     -1.57422423375292
  C           0.80016483999612      2.78919468527736     -1.40958267934432
  O          -1.65161650104964      5.44288290983373     -2.31277496378402
  C          -0.05423545698311      1.60302079703841     -1.00311260953955
  C          -0.40837570956032      0.64343782447381     -1.94625389801197
  C          -1.20911754947126     -0.42272192062166     -1.60009900213611
  C          -1.68044957632051     -0.55838424721873     -0.29355819009466
  C          -1.31650769697245      0.38492380825218      0.65830220413062
  C          -0.51562587277783      1.45565513887544      0.29528532963959
  O          -2.46751646397714     -1.65240691889776     -0.06085014443923
  C          -3.07516274787352     -1.79928268589049      1.20360733739168
  C          -2.12737671389901     -2.24502934287423      2.28798777544652
  C          -0.85946039340239     -2.69531026111795      1.93903981474237
  C           0.05905429119923     -3.09563313912674      2.89296151798450
  C          -0.27000027198558     -3.05420069948221      4.24120913292705
  C          -1.52271002620308     -2.62435095211667      4.61765311834482
  C          -2.45672715133636     -2.22611881505001      3.65498350498905
  N          -3.72694310703819     -1.81822713752561      4.12865826993071
  O          -3.87085755366883     -1.62992338203621      5.33657500043720
  O          -4.65313628631088     -1.66612732134443      3.33202759307232
  C          -1.79653371824874      5.77664787387009      0.46995992159189
  N          -0.92921937691364      4.86569398994686     -0.23395929161655
  H          -0.37381409809037      4.23435710821936      0.31933510800669
  H          -1.20999269082925      6.42973084526358      1.11553953453809
  H          -2.32603294080052      6.37501102828698     -0.26922537442394
  H          -2.52051165511501      5.22778881363070      1.07385350839882
  C           0.50009343752304      3.02022858086772     -4.49317003228177
  O           1.41059746564493      2.23786734495310     -4.25323916841577
  C           0.01001765870613      3.33337840839442     -5.87740851465637
  H           0.58371103280617      2.76049252622053     -6.59966407031714
  H          -1.04309493117845      3.07771708214328     -5.96510782377809
  H           0.12580607907982      4.39460441368747     -6.08317412045289
