47
Coordinates from ORCA-job /home/esp/scriptDevelopment/drFrankenstein/11_PCY_CHARMM/04_torsion_scanning/torsion_NH1-CT1-CG321-CG2R61/scans_PCY_conformer_4/PCY_conformer_4_forwards/orca_scan E -79.895336906520
  H          -3.14807944832804     -2.13798475143186      0.02701954032028
  H           0.15830137864177     -2.35674896311799      1.35475995605738
  H           0.43549125770200     -0.69218941837457     -1.96795592517212
  H          -0.99298640335663      4.01052212055315      0.48458047650644
  H          -2.31212346026910     -3.64506040663467     -0.34205235874634
  H           0.86436707521508      1.73682533432372     -1.85648295299912
  H          -2.39729824354483     -0.32387763721185      1.20684682322869
  H           0.72594731310404      3.71167870669640      0.18833100730332
  H          -0.95832900682576     -3.33150672579266      5.36181468048539
  H          -1.99735260828308      2.06859553115414      1.29254976339491
  H          -3.26858958985200     -3.77614854498171      4.58261307392838
  H          -0.72113687095328      4.25016577674969     -3.46641352270855
  H           0.76004640717426     -2.63516044514437      3.71522442267810
  N          -1.01961051175489      3.75909833151385     -2.61594517745436
  C          -0.36500472459543      4.25771276544977     -1.53229195921381
  C           0.42374167700477      5.43457548971380     -1.87522733650712
  C          -0.27900697263902      3.56331622866671     -0.21655518915035
  O           0.45002788445373      5.83398079776284     -3.05802926966297
  C          -0.54897913469155      2.08205340071283     -0.28163888756442
  C           0.14304033792292      1.28682358158982     -1.19045295402279
  C          -0.08698066844923     -0.06990878808174     -1.25903966894990
  C          -1.01458128597511     -0.66953231153021     -0.40790570574912
  C          -1.68645793775199      0.11165169468144      0.52264103549808
  C          -1.45067339463890      1.47450046483243      0.57645973900244
  O          -1.17141807118090     -2.02194997406166     -0.56459991102692
  C          -2.19789098548677     -2.67288147461798      0.14960966881669
  C          -1.88513208850982     -2.88822692106328      1.60840334278778
  C          -0.59258775670571     -2.66145908170012      2.06658321657971
  C          -0.25395022199812     -2.81854744502392      3.39856955654518
  C          -1.21376820395833     -3.21053716527801      4.32214299453957
  C          -2.49993617898599     -3.45561927738221      3.89669941457716
  C          -2.84391684362153     -3.30617527047000      2.54846855961132
  N          -4.18167660244470     -3.60133284111714      2.19499416278955
  O          -5.00423560781169     -3.77197005165825      3.09610225418046
  O          -4.49396173822938     -3.68680824684293      1.00643569698810
  C           1.87132033510134      7.25618615467409     -1.10821166647645
  N           1.09530798330201      6.06030917546604     -0.88740362553134
  H           0.97984201476744      5.75712128709620      0.06584918802422
  H           2.89361671408502      7.10887767823529     -0.76090828134486
  H           1.87614149826669      7.46032429733733     -2.17740668647017
  H           1.43042466042635      8.10370006520665     -0.58230506750390
  C          -2.13920359020705      2.96527004727105     -2.69804662966369
  O          -2.78219548560014      2.62286391213882     -1.71916525889466
  C          -2.48112086283325      2.59040731561794     -4.11124780854948
  H          -3.35697980496198      1.94900272489955     -4.10972120942479
  H          -2.68793265116220      3.48260044552323     -4.69705936726364
  H          -1.64552958156091      2.06344241365032     -4.56467215379236
