47
Coordinates from ORCA-job /home/esp/scriptDevelopment/drFrankenstein/11_PCY_CHARMM/04_torsion_scanning/torsion_NH1-CT1-CG321-CG2R61/scans_PCY_conformer_4/PCY_conformer_4_forwards/orca_scan E -79.899996773940
  H          -3.50130499033427     -1.30605705001850      0.85632823675010
  H          -0.18884951314523     -2.62048339620142      1.20175584074563
  H          -0.53310817386446     -1.62546208378490     -2.33316805319989
  H           1.40515563227706      3.14392986626602     -0.65499005721622
  H          -3.36304455584160     -3.05056680791530      0.65370294253929
  H           0.71434463080384      0.42449759394989     -2.92310190991573
  H          -1.86303108221915      0.23573216701160      1.27462471535311
  H           1.60552056902796      2.51237724271564     -2.30218665172329
  H          -0.04870407697202     -2.52517567127966      5.47041271437324
  H          -0.65190851750553      2.24982529363158      0.68671931420387
  H          -2.49384418826760     -2.12043377569015      5.51688825257159
  H          -1.33544285934886      4.32112256473974     -3.47376728398301
  H           1.09090436404770     -2.79391138437691      3.28487726146087
  N          -0.55620474774309      3.66691894846260     -3.34071914438393
  C          -0.10245658731383      3.72940160175577     -2.06037452548054
  C          -0.82050275617263      4.72993338222079     -1.28311177120392
  C           0.88027252722271      2.75067649086191     -1.52361774024775
  O          -1.72971581709728      5.39167467071596     -1.82643059175746
  C           0.12975434685743      1.48256997189387     -1.15625048211753
  C           0.14984950299976      0.38084935283829     -2.00424604127005
  C          -0.54602152416962     -0.76516042433375     -1.68336909503947
  C          -1.28558748019872     -0.83682644482025     -0.50283233627421
  C          -1.31078630305729      0.26076232170484      0.34874988592603
  C          -0.61222341876306      1.40819753902028      0.01313034266327
  O          -1.93038458715484     -2.02298382248441     -0.28140927477991
  C          -2.78579478544511     -2.13742926514187      0.83412891724420
  C          -2.05942010618729     -2.26155417746782      2.14930269545684
  C          -0.69081972565695     -2.50431847638411      2.14938491626499
  C           0.03094969524458     -2.60172493626710      3.32558931045094
  C          -0.60534477705856     -2.45357786277086      4.55072356414880
  C          -1.96268604960672     -2.22481308146596      4.58363016900008
  C          -2.69718937725064     -2.13544146454365      3.39608720531154
  N          -4.09100420093243     -1.92401220927436      3.52201578828951
  O          -4.53972996018387     -1.60533645715548      4.62347064492839
  O          -4.81946234010911     -2.06708522716336      2.53951480887378
  C          -1.10270160964654      5.88974190185186      0.85708478001383
  N          -0.46524093774019      4.91879269227621      0.00308396080337
  H           0.30406357507449      4.39665737396265      0.39027536421185
  H          -0.38181467324078      6.63589487787511      1.19184558416384
  H          -1.88734600448898      6.37805335766205      0.28183222880572
  H          -1.54284072045633      5.39870741589129      1.72551238322669
  C          -0.07901791533338      3.00639790548781     -4.44379068600607
  O           0.91073584902691      2.28829373209920     -4.42378614588305
  C          -0.90040742894114      3.26467369377972     -5.67402285406798
  H          -0.48152529308499      2.71050919746332     -6.50846649887252
  H          -1.92681647066837      2.94786638463076     -5.50657801161106
  H          -0.90027713738196      4.32627647777107     -5.90849267274782
