47
Coordinates from ORCA-job /home/esp/scriptDevelopment/drFrankenstein/11_PCY_CHARMM/04_torsion_scanning/torsion_NH1-CT1-CG321-CG2R61/scans_PCY_conformer_4/PCY_conformer_4_forwards/orca_scan E -79.897932454090
  H          -2.97946934123250     -2.02494217518905     -0.04978718638840
  H           0.14889557849567     -2.30552404291261      1.66824270477948
  H           0.97983370017043     -1.79845970366217     -1.88047457348626
  H           1.54411912083273      3.18345208250730     -0.69685685273549
  H          -2.38072348238732     -3.66786107235608      0.16339621051188
  H           1.83962790592081      0.44936233589715     -2.42223274349011
  H          -2.04122386790574     -0.04265689268587      0.57705457376962
  H           1.54292873299197      2.78237187931107     -2.42132193288737
  H          -1.38417737061044     -1.73626528976624      5.61539169479805
  H          -1.19124989838306      2.16992623676526      0.04047086309794
  H          -3.68327879994915     -2.03071937960559      4.73743621083803
  H          -1.92119453715892      4.25269135615213     -2.60233153992894
  H           0.53585563198854     -1.89714650478607      4.05460076293563
  N          -1.17625133988506      3.55081083165443     -2.66525612710403
  C          -0.17879588419111      3.82791192250969     -1.78253579047678
  C          -0.42625383064996      5.06978141702734     -1.06349416708730
  C           0.91680784312490      2.85801970857707     -1.52634210429844
  O          -1.46688653234029      5.71773247365148     -1.30660702269909
  C           0.38517484703155      1.47225880510033     -1.22790282868711
  C           0.99524656491284      0.34280200329123     -1.76003326179208
  C           0.51877412236719     -0.91633510307825     -1.46618427794005
  C          -0.58546482990743     -1.07815531066299     -0.62961989896070
  C          -1.19442939263313      0.04504858070407     -0.08527277851717
  C          -0.70650546671660      1.30494706806756     -0.38921490161464
  O          -0.97273510969107     -2.37292441853227     -0.40698879505347
  C          -2.14178693743213     -2.61416315841310      0.34341113927932
  C          -1.97033910614707     -2.39091163539997      1.82452840822083
  C          -0.68984344361059     -2.23800140973269      2.34308385503794
  C          -0.47248269834152     -2.00706417217124      3.68958779094809
  C          -1.54587765844437     -1.91868796929690      4.56590058823935
  C          -2.82583173805700     -2.07769093492468      4.08431036670000
  C          -3.04859741228404     -2.32067364388594      2.72435376669724
  N          -4.39293343328959     -2.49422754367920      2.31888368434609
  O          -5.28912795321309     -2.20332073091276      3.11253142693344
  O          -4.63835066570550     -2.93190462723398      1.19375500382932
  C           0.34068700291868      6.71701979902621      0.57969931000478
  N           0.48391314764002      5.48881830275622     -0.16225922084645
  H           1.32682059820787      4.95848985634601     -0.01335203326578
  H           1.16386486852074      7.39533322197936      0.35458089466920
  H          -0.59972798031013      7.17952803622860      0.28523087946546
  H           0.32450016995122      6.51275914096817      1.65041056818922
  C          -1.23799075973340      2.61847799906020     -3.67044494973630
  O          -0.31434061250275      1.86554495069068     -3.93601312847181
  C          -2.54919605097112      2.63943343684102     -4.40309500567219
  H          -2.53742014239001      1.88174009684910     -5.18058024172725
  H          -3.36233367157751      2.43536219604792     -3.71098438654331
  H          -2.71323988742351      3.61599198087806     -4.85171495388039
