47
Coordinates from ORCA-job /home/esp/scriptDevelopment/drFrankenstein/11_PCY_CHARMM/04_torsion_scanning/torsion_NH1-CT1-CG321-CG2R61/scans_PCY_conformer_4/PCY_conformer_4_forwards/orca_scan E -79.901017686140
  H          -3.60657208273710     -0.69022701944996      1.87724778641832
  H          -0.87627516612660     -2.70721278693171      0.74889518551608
  H          -2.04703116960440     -0.88298779982536     -2.20554442767307
  H           1.15005898970286      3.27712514271757     -0.50975046828245
  H          -4.04857921122873     -2.32246712174766      1.38433017752512
  H          -0.51201223446987      0.91706613853245     -2.91628553691815
  H          -1.55374664676587      0.32097909418455      1.86309156920879
  H           1.53922521545199      2.34170508743329     -1.96681949471624
  H           0.66273667148915     -3.68992291522685      4.61008676576044
  H          -0.05957971835780      2.09413743548778      1.16340888198295
  H          -1.41835357400690     -2.81723144736479      5.63486060154689
  H          -0.58100402616960      4.45777211501620     -3.96975068570165
  H           0.90695737827675     -3.64346527257587      2.14287715280121
  N           0.04772186310238      3.74115346236911     -3.58957680007253
  C          -0.01560581464042      3.73691788473651     -2.23346269578919
  C          -0.97718418102536      4.70743801983886     -1.73105384182770
  C           0.72693049689036      2.77178043062412     -1.37868806872587
  O          -1.54951305190464      5.47893271522437     -2.52852344531768
  C          -0.19711904034479      1.65648689822531     -0.93184022808953
  C          -0.75944439790183      0.79961451907728     -1.87260480724652
  C          -1.60934029188048     -0.21216628346320     -1.48387242627392
  C          -1.92112963597637     -0.39478757531942     -0.13549590296845
  C          -1.35445129125253      0.44836554678728      0.81113268192986
  C          -0.50549121814681      1.46609407655504      0.40580976552649
  O          -2.77036392337118     -1.43140005048618      0.13723226137735
  C          -3.20792115451432     -1.62498766401112      1.46417340681430
  C          -2.15922250084137     -2.21382737455589      2.37332801539619
  C          -0.99063367657983     -2.72537960156881      1.82126186761405
  C           0.01628193185328     -3.25414975752533      2.60893543182232
  C          -0.11919832602718     -3.28323986075994      3.99041703908618
  C          -1.27123008409547     -2.79646898739939      4.56625497709027
  C          -2.29571982171174     -2.26995473122265      3.77188730683175
  N          -3.45562115862261     -1.81569585483383      4.44467963646215
  O          -3.42132218217345     -1.71232998947648      5.67074326055427
  O          -4.46600703534882     -1.54092882458266      3.79729387760759
  C          -2.15744757210989      5.62584908300129      0.20831719369368
  N          -1.19113498980070      4.74635602112799     -0.40114137171851
  H          -0.78731209276163      4.03002842110837      0.18054543778398
  H          -1.68824700771700      6.19991860194437      1.00665166891111
  H          -2.52616888745204      6.30317785116889     -0.55988846798244
  H          -2.99356816561879      5.05660784472470      0.61705236132135
  C           0.81370993242098      3.02587897173211     -4.47459092054176
  O           1.61141179853435      2.16279075616935     -4.13221633256693
  C           0.55917776031143      3.41094476200468     -5.90352216013813
  H           1.18351396633913      2.80665977630971     -6.55468139486825
  H          -0.48697787672713      3.25058837400029     -6.15247685722609
  H           0.79179320364061      4.46244188822560     -6.05276797593764
