47
Coordinates from ORCA-job /home/esp/scriptDevelopment/drFrankenstein/11_PCY_CHARMM/04_torsion_scanning/torsion_NH1-CT1-CG321-CG2R61/scans_PCY_conformer_4/PCY_conformer_4_forwards/orca_scan E -79.898413502810
  H          -2.74710631551287     -2.38793756962873     -0.16077730093057
  H           0.31285777253115     -2.05141384180494      1.66099614404525
  H           0.83387633062870     -0.41486402034871     -1.64980836301508
  H          -1.75309622230937      4.03978433002295      0.19989739206357
  H          -1.63061704754882     -3.74225630504603     -0.32049962084477
  H           0.86450092012283      2.05332762914303     -1.57298750690992
  H          -2.48848487833354     -0.44355942407822      1.03459965290364
  H          -0.01191559521152      4.02899392914601      0.51626808624939
  H          -1.27042565081126     -3.05764978801083      5.49976333044517
  H          -2.47235470390665      1.98437411036354      1.08611550149484
  H          -3.34156283871817     -3.86733865255181      4.40493188454838
  H          -0.92805436922862      4.29982762189960     -3.46758193654102
  H           0.56864501660853     -2.16421220265562      4.09735816637837
  N          -1.31426070228577      3.91405867498406     -2.59915228885212
  C          -0.56670948178197      4.30043995659094     -1.53002642010474
  C           0.51047519441880      5.19762021621163     -1.92336298406340
  C          -0.78276707396897      3.70880795077261     -0.18437230389823
  O           0.63504563434953      5.50893234957817     -3.12708517848855
  C          -0.80616564292658      2.19616638320225     -0.23725043318630
  C           0.12705215208776      1.50609409534213     -1.00417639087532
  C           0.11899799472342      0.12864543373975     -1.05307560946872
  C          -0.82686960530084     -0.59552199289285     -0.32823302070366
  C          -1.75106688881485      0.08631665525213      0.45279058336804
  C          -1.73577701776748      1.47009343604731      0.48897253960902
  O          -0.74600046458433     -1.95761881073735     -0.44869732347234
  C          -1.75488260121463     -2.75287556443721      0.13270535798476
  C          -1.64697134121865     -2.87602367455137      1.63121063929066
  C          -0.48887510157891     -2.44368067115517      2.26658006283205
  C          -0.34586586888703     -2.50691884786006      3.64104105703934
  C          -1.37341764997824     -3.00887993285597      4.42840583817883
  C          -2.52812641470464     -3.45688480489788      3.82709671668189
  C          -2.67184451123142     -3.40355146739109      2.43632954768861
  N          -3.87983931655930     -3.90863984127251      1.89931718057358
  O          -4.81162181717280     -4.14531495788530      2.66895764741331
  O          -3.97154660245393     -4.10555851279422      0.68711600565672
  C           2.41722404615135      6.58448249991618     -1.25880050202815
  N           1.34003621021468      5.66962293825217     -0.97195762016900
  H           1.18681454053604      5.43035552850840     -0.00598965468476
  H           3.36514026922331      6.16734064344328     -0.91967041817859
  H           2.45107764153614      6.73623851176840     -2.33621124915043
  H           2.24751821901251      7.54201363620847     -0.76531721684801
  C          -2.51738456292062      3.25780968213976     -2.65277625160627
  O          -3.14198903374873      2.92945243784442     -1.65540728235979
  C          -2.97767642794979      3.00188502835650     -4.05947224139737
  H          -3.92786066764609      2.47723387583880     -4.03605768274357
  H          -3.09669442400589      3.94211588579349     -4.59209278371008
  H          -2.24244110186234      2.39664744248984     -4.58365375021469
