47
Coordinates from ORCA-job /home/esp/scriptDevelopment/drFrankenstein/11_PCY_CHARMM/04_torsion_scanning/torsion_NH1-CT1-CG321-CG2R61/scans_PCY_conformer_4/PCY_conformer_4_forwards/orca_scan E -79.899995363440
  H           0.68273762177296     -2.38924004911512      0.35284829375249
  H          -0.73727546371237     -0.82907270352682      3.23771296318079
  H           1.28455928771562      1.75811845020266      1.59544273479449
  H          -3.04044417395491      2.65869628513634     -1.69207133103644
  H           1.63444051228758     -2.57287420386292      1.82339822457256
  H          -0.07392259638655      3.48596508144481      0.46285774257727
  H          -1.28669391253586     -1.27217987461306      0.02887561236240
  H          -2.82677164580516      3.69136719020577     -0.29673339925382
  H          -3.63086637140456     -3.85401942421330      4.08380294843137
  H          -2.60687220496778      0.42596373573730     -1.09954381109873
  H          -2.48141037932835     -5.36518180316937      2.49078402230136
  H          -1.36379978242789      5.91911715039749     -2.68390124944846
  H          -2.72323362666402     -1.57740981501837      4.45995428354674
  N          -1.97869426530855      5.40618540329573     -2.04102857889428
  C          -1.53850222702284      4.12842992799539     -1.89330443104446
  C          -0.37849096103157      3.86713198393431     -2.73796334398643
  C          -2.27842477995265      3.13875018546139     -1.06597838725974
  O           0.14382017016398      4.81473054457804     -3.36208425011914
  C          -1.43049041246651      2.07927990847362     -0.41491170265452
  C          -0.33066780811847      2.44259691838716      0.36138975092357
  C           0.43105282126881      1.48672119340290      0.99552665250446
  C           0.10611859014255      0.13321620887839      0.88112395029132
  C          -0.99656162187516     -0.23807107487505      0.12253725680063
  C          -1.75085244449268      0.73278933712385     -0.51746643837039
  O           0.92437494205656     -0.72672825104766      1.55886050212429
  C           0.72725523317301     -2.11566512049617      1.41427526546123
  C          -0.47357265319491     -2.64355235306808      2.15744153396723
  C          -1.12515379454318     -1.82120427350032      3.06886570965071
  C          -2.24674635667973     -2.24420215684337      3.75965055097740
  C          -2.75544775309417     -3.51924610047573      3.55238076591684
  C          -2.12375960869104     -4.36250645674906      2.66610744122488
  C          -0.98371981881088     -3.94123018713647      1.97262244312742
  N          -0.38356178932474     -4.88047663434967      1.10124138039507
  O          -0.99073883929554     -5.92287643031643      0.85029289342207
  O           0.72543501775532     -4.64311601388888      0.61958142973913
  C           1.22000035355833      2.23849252305191     -3.62516316476333
  N           0.05987876837144      2.59985251844315     -2.84977002304246
  H          -0.37990982179794      1.87745724827787     -2.29935317109464
  H           0.95505265530507      1.49189931865338     -4.37348333344022
  H           1.58703747946070      3.13558386110201     -4.12054955882196
  H           1.99897365027538      1.83613459191901     -2.97648445754041
  C          -3.00018801162129      6.09460495436484     -1.43986953806944
  O          -3.76737434090509      5.58993059423919     -0.62968655843792
  C          -3.07820009661140      7.52560095407840     -1.88740221759670
  H          -3.90903473878401      8.01336204813068     -1.38676975922103
  H          -2.15411533772187      8.04434515719091     -1.64464866127745
  H          -3.22624946477548      7.57050965215928     -2.96344698557377
