47
Coordinates from ORCA-job /home/esp/scriptDevelopment/drFrankenstein/11_PCY_CHARMM/04_torsion_scanning/torsion_NH1-CT1-CG321-CG2R61/scans_PCY_conformer_4/PCY_conformer_4_forwards/orca_scan E -79.901620748380
  H           0.05972106695012     -2.33625335052694     -0.12017615530859
  H          -0.41584189237240     -1.12491492110140      3.22089641238566
  H           2.20431671270055      0.98462705346778      1.74668173573823
  H          -1.73813335103675      4.25175900296387      0.41054673032931
  H           0.99676402256611     -3.15216651240956      1.12892776216595
  H           1.47973738339246      3.26599220327535      1.15978564016404
  H          -1.39324290853689     -0.58631019165333      0.06152621028304
  H          -0.06020445259203      4.74486939860536      0.13823007405581
  H          -4.16207458548943     -3.05212401715947      3.92722229285491
  H          -2.09656267715399      1.66528385803185     -0.53576802789833
  H          -3.81843230594472     -4.41417559280525      1.88493262389308
  H          -2.28729870625745      4.44856614534556     -3.12701250559363
  H          -2.42584147985884     -1.41261073284036      4.59333153128559
  N          -2.32762600976916      4.43093344666019     -2.10119902987551
  C          -1.11061717460537      4.10831806421097     -1.59339352652049
  C          -0.12813115509366      3.86947984684785     -2.64127792645645
  C          -0.82447145703911      4.01309108651179     -0.13634790128641
  O          -0.46391010811262      3.98652357629888     -3.83846088408139
  C          -0.35598622072302      2.62710311855630      0.24656136668113
  C           0.85585930835128      2.42392749042516      0.89900584718194
  C           1.26765613023404      1.15211497055618      1.24017391824481
  C           0.47381396746543      0.04738696090886      0.93374091053696
  C          -0.74470110848938      0.24341177264077      0.29348205752848
  C          -1.14475728888083      1.52381757897547     -0.04575636371975
  O           0.97951686317377     -1.16463436173928      1.31411766560577
  C           0.28563269092771     -2.33792007511863      0.95326897587471
  C          -0.95876025309640     -2.58178679714000      1.76859543926017
  C          -1.16670827659876     -1.84097117225447      2.92612083774736
  C          -2.30146727026040     -2.00364072767203      3.70042721960358
  C          -3.27432571743446     -2.92263365505022      3.33058643384107
  C          -3.09141900693938     -3.67985081093562      2.19526273921689
  C          -1.94020226676393     -3.52454270360385      1.41544931603888
  N          -1.82179990381353     -4.35885194391739      0.27833454308818
  O          -2.81184112796842     -4.98900646156181     -0.09373911661770
  O          -0.74173435530631     -4.43893986781458     -0.30723900649061
  C           2.17499472516637      3.25958159968009     -3.20769673079677
  N           1.12847718197009      3.56437773850480     -2.26381422857685
  H           1.31867053790603      3.38502257381250     -1.28987668835751
  H           2.46645598463721      2.21109817162934     -3.13306964936770
  H           1.79433614224752      3.45721740303025     -4.20817621947055
  H           3.04376041577412      3.88857323789392     -3.01669450136456
  C          -3.53194454240320      4.69621965063685     -1.50175632688400
  O          -3.70098031420528      4.67781531101283     -0.28898668532546
  C          -4.61667152973918      5.00800518236600     -2.49241304799802
  H          -5.54120999332432      5.20969969600239     -1.96006748059680
  H          -4.34138604930225      5.87811552289295     -3.08320117868975
  H          -4.76243964435119      4.16638223355998     -3.16512510232869
