47
Coordinates from ORCA-job /home/esp/scriptDevelopment/drFrankenstein/11_PCY_CHARMM/04_torsion_scanning/torsion_NH1-CT1-CG321-CG2R61/scans_PCY_conformer_4/PCY_conformer_4_forwards/orca_scan E -79.896470769450
  H          -3.05750550699279     -2.23734636807487     -0.03749183768121
  H           0.21194709989294     -2.27817098505596      1.41045650139433
  H           0.53320529818950     -0.61546730276614     -1.89433824132209
  H          -1.26986894352400      4.02720626092540      0.40683270820928
  H          -2.12388885925555     -3.69849943405524     -0.35185796969059
  H           0.84366350422416      1.83112282307004     -1.77516974775441
  H          -2.45517853765481     -0.37032504871695      1.14751204743220
  H           0.48600240246642      3.80456806616358      0.33581996055071
  H          -1.00998611091147     -3.21921744154851      5.39497657061441
  H          -2.16922088011131      2.03813545806550      1.24020018246765
  H          -3.26916245343496     -3.77857939415262      4.54261753430710
  H          -0.75220743216420      4.23980923775686     -3.46378010808365
  H           0.73750125614231     -2.48425793777505      3.79662352884194
  N          -1.09285603834313      3.79517228245981     -2.60423039932671
  C          -0.41450946914465      4.26698961810163     -1.52333699965260
  C           0.47946438757799      5.35976630823301     -1.88300518418616
  C          -0.45112099936384      3.60784089906946     -0.18897418179441
  O           0.57237911960422      5.70827160122569     -3.07870783637425
  C          -0.65133412246662      2.11374023362900     -0.26471317452819
  C           0.11490166941587      1.34975151350399     -1.13980609747737
  C          -0.04920898563596     -0.01664229288807     -1.21245840516215
  C          -0.98427299150308     -0.65691415067691     -0.40009481548693
  C          -1.73406114691267      0.09521772362027      0.49457246518394
  C          -1.56393207730818      1.46758689982585      0.55288220581871
  O          -1.06883526304466     -2.01583816489933     -0.55522993428911
  C          -2.08383896956424     -2.71518769841168      0.12906574806041
  C          -1.81513816933610     -2.89199316617516      1.60186340960757
  C          -0.55104754761643     -2.60086561141125      2.10120065314276
  C          -0.25559238646126     -2.71686090353710      3.44762151418662
  C          -1.23169593060306     -3.13030827267489      4.34437510033409
  C          -2.48993948703034     -3.43870231363008      3.87828647833588
  C          -2.78914570751313     -3.33196858265975      2.51553241305382
  N          -4.09815812291056     -3.69399418517770      2.11919597756424
  O          -4.95205641664098     -3.85995332976862      2.99135662495944
  O          -4.35375576819613     -3.84102358458447      0.92326868471629
  C           2.05354321295395      7.08536737343389     -1.14596086381712
  N           1.17443402215842      5.96829763715455     -0.90045046758403
  H           1.00495800895096      5.72048197145917      0.06075615183354
  H           3.04848254129901      6.87158085437665     -0.75632960084794
  H           2.10881587096035      7.23824849640076     -2.22231833583140
  H           1.66833146509368      7.98986967008666     -0.67384000144158
  C          -2.24436314985293      3.04940862290672     -2.67628493816159
  O          -2.89061643689247      2.73252326136267     -1.69040983857715
  C          -2.61661963814012      2.69078430182602     -4.08613170616343
  H          -3.51823464220190      2.08606619569764     -4.07592406740869
  H          -2.79286126857559      3.59164391949354     -4.66876969946661
  H          -1.80842639962257      2.13064493879198     -4.54944200850560
