47
Coordinates from ORCA-job /home/esp/scriptDevelopment/drFrankenstein/11_PCY_CHARMM/04_torsion_scanning/torsion_NH1-CT1-CG321-CG2R61/scans_PCY_conformer_4/PCY_conformer_4_forwards/orca_scan E -79.900019027730
  H           0.50120389944390     -2.28781806557249      0.10286602269300
  H          -0.57934825804674     -1.04844255767345      3.28261199749282
  H           1.96177973461330      1.30389230123749      2.13796632660252
  H          -2.11432557312378      4.05544246201489      0.30555522471428
  H           1.35157689081396     -2.95787000069412      1.49230302932873
  H           1.05481185733147      3.47391205535478      1.39184063869280
  H          -1.14461244432137     -0.71817626906980      0.01395338983296
  H          -0.50858173958233      4.73656619750990      0.17213817109197
  H          -4.11160354775063     -3.43005267217805      3.58478903637530
  H          -2.02751918236652      1.42341740794113     -0.73322039532733
  H          -3.31682822693360     -4.80663825755117      1.68328265894331
  H          -2.28934861060404      4.84039265826917     -3.18239028351653
  H          -2.70727616376006     -1.55078166044213      4.38712884951424
  N          -2.34518330651040      4.82462911865493     -2.15731545486053
  C          -1.34288145643649      4.06183449664233     -1.64550800976195
  C          -0.46733446461930      3.56008611221862     -2.69862170968042
  C          -1.14370112056332      3.91407795961476     -0.17924696367794
  O          -0.78673281984358      3.74324226249048     -3.89240280405423
  C          -0.54624897123926      2.60380586542756      0.25902643857200
  C           0.57773191342683      2.55748642304426      1.07958701784923
  C           1.09150917833671      1.34948564519027      1.50364492469173
  C           0.48848651955293      0.15149487115520      1.12061137693512
  C          -0.64214132511226      0.18824066744331      0.31163322159000
  C          -1.14684736024899      1.40579675855111     -0.10884835985478
  O           1.07906541450758     -0.98387252096319      1.60090727985778
  C           0.58037509073698     -2.23894791428300      1.19587055090709
  C          -0.72525922105337     -2.61468233962592      1.84949822339174
  C          -1.18457537507877     -1.86761947700104      2.92771904771898
  C          -2.38615085778631     -2.15170850744797      3.55175142374232
  C          -3.17326816336697     -3.20474833857985      3.10560451352853
  C          -2.73934926705508     -3.97119141951296      2.04735004568981
  C          -1.52027834878459     -3.69212707484219      1.41963412318254
  N          -1.14034481613597     -4.54404019159339      0.35602973650553
  O          -1.97504921601525     -5.32998772139157     -0.09584395683625
  O           0.00692337433422     -4.48741120459741     -0.09027465143877
  C           1.59841240524938      2.39198456193904     -3.30114613156875
  N           0.68318264987262      2.95941771139274     -2.34292476425166
  H           0.87418498348133      2.80349395782627     -1.36420885483766
  H           1.64336676881486      1.30771505633122     -3.18922494609658
  H           1.23827915737663      2.63778589723596     -4.29861181763872
  H           2.59488140656490      2.80868277814831     -3.15928134392925
  C          -3.40296209656102      5.46020304506104     -1.56013847101026
  O          -3.58974534776240      5.46515687337445     -0.34998398364759
  C          -4.29625924487836      6.15410478362824     -2.54732341647208
  H          -5.10073328379267      6.65205705970012     -2.01473643791193
  H          -3.72655394817557      6.88749424075093     -3.11238690070401
  H          -4.71573748694847      5.43219696487107     -3.24370361236710
