47
Coordinates from ORCA-job /home/esp/scriptDevelopment/drFrankenstein/11_PCY_CHARMM/04_torsion_scanning/torsion_NH1-CT1-CG321-CG2R61/scans_PCY_conformer_4/PCY_conformer_4_forwards/orca_scan E -79.898742902800
  H          -3.01632239099304     -1.95999805375825      0.06453167516861
  H           0.16476205632472     -2.27358643220013      1.67191534403261
  H           0.85427696503639     -1.85050416918965     -1.94015982660185
  H           1.59662687540946      3.14102625530813     -0.86880690478371
  H          -2.44717271663294     -3.61300122506838      0.28191593518610
  H           1.73525342001069      0.37032581881878     -2.55824749272749
  H          -2.00259817650433      0.00821067338445      0.63523088560144
  H           1.48606286150922      2.70807627526167     -2.58063948318526
  H          -1.21293297127926     -1.61968965229247      5.66304307194081
  H          -1.13239989048131      2.19299230841415      0.02361087461547
  H          -3.54713026463488     -1.88801977622950      4.87413228477031
  H          -1.85392849830327      4.29699743765750     -2.77967216189868
  H           0.64572976491635     -1.83644803434091      4.03605027025492
  N          -1.11052708287914      3.59364911761260     -2.84382520145401
  C          -0.17991556706376      3.78853406356124     -1.87142446990572
  C          -0.49721949049036      4.94434332338368     -1.04491377932739
  C           0.91596830654027      2.81100625649922     -1.65280945307266
  O          -1.50643138294742      5.62959666721896     -1.31651842974990
  C           0.36882439500942      1.44128061588972     -1.30435941827258
  C           0.92401956326159      0.29142362791716     -1.85230065526494
  C           0.43448193259569     -0.95240668985933     -1.51644370593316
  C          -0.62938134582419     -1.07716963579274     -0.62307099974651
  C          -1.18655451780613      0.06740647319849     -0.06753025340966
  C          -0.68600064495250      1.31136351112753     -0.41340154607236
  O          -1.03249516699948     -2.35913251349794     -0.35992746165423
  C          -2.17829162695270     -2.56246889771189      0.43638637644893
  C          -1.94842402268742     -2.32045305079121      1.90663267288221
  C          -0.64739973017930     -2.18172543689714      2.37575146699266
  C          -0.37698860184321     -1.93456398077107      3.70973145063123
  C          -1.41592890438920     -1.81484074590113      4.62307077271980
  C          -2.71512647985927     -1.95928144011070      4.19097030997783
  C          -2.99172905978181     -2.21853153147099      2.84392676328635
  N          -4.35277232059674     -2.37512342251083      2.49055289650300
  O          -5.21404563297050     -2.06233130927098      3.31394321681396
  O          -4.64682343605971     -2.82051774859561      1.38019952622806
  C           0.08638180937489      6.36636871013610      0.86310106263547
  N           0.31413365212158      5.24250981686272     -0.01099376769029
  H           1.11274321438432      4.66173469030959      0.18634457392166
  H           0.93721907043097      7.04711039421755      0.83420190292616
  H          -0.80496442148856      6.88643307572998      0.51645342602994
  H          -0.06831268163676      6.02564646362737      1.88718088046069
  C          -1.12917310968938      2.71721323681562     -3.89919060542122
  O          -0.22638981925724      1.92678075104185     -4.12707729863748
  C          -2.36920642662300      2.84582095111479     -4.73741611483346
  H          -2.32792312542355      2.12843208433225     -5.55123996386462
  H          -3.24894971213701      2.65224753166525     -4.12878273795241
  H          -2.44403466755816      3.85124361515447     -5.14416590856869
