47
Coordinates from ORCA-job /home/esp/scriptDevelopment/drFrankenstein/11_PCY_CHARMM/04_torsion_scanning/torsion_NH1-CT1-CG321-CG2R61/scans_PCY_conformer_4/PCY_conformer_4_forwards/orca_scan E -79.901224714580
  H           0.82780934918321     -2.24986658547327      0.55699460384441
  H          -0.95431581560128     -0.72126675559988      3.25831644294018
  H           0.98756414210033      1.96997332442131      1.69310564021796
  H          -2.95798357890579      2.42602552001556     -2.11368579225839
  H           1.64305262160140     -2.31329804612918      2.11703088806443
  H          -0.38274084134002      3.54779828616317      0.37425811805549
  H          -1.17448499061701     -1.30322059150687      0.00154626204342
  H          -3.09993259819843      3.46235122741635     -0.69647685975717
  H          -3.70408937131419     -3.91989504663540      3.92954624389564
  H          -2.50271034314688      0.24884091491634     -1.31122863996263
  H          -2.31937574860867     -5.38127986414076      2.48378778822193
  H          -1.20675166129853      5.90989289378944     -2.49693083236733
  H          -2.98772750917846     -1.57896636654081      4.32195802994278
  N          -1.87617670553141      5.36233288092343     -1.94366391006573
  C          -1.58563642498070      4.03924176543125     -2.03609453851327
  C          -0.43638206950376      3.79299071549028     -2.89631084830248
  C          -2.38242439508261      2.97890862949452     -1.36392832355311
  O           0.16100468903143      4.75862263355455     -3.41558004258547
  C          -1.53366849450223      2.01105729043840     -0.57530849805740
  C          -0.54677581506235      2.48467133355122      0.28566566565332
  C           0.21973056037525      1.61225105866117      1.02627670898911
  C           0.01397103516532      0.23459169064125      0.93192808955467
  C          -0.97638263575716     -0.24674604637752      0.08536763886222
  C          -1.73468246685799      0.64089978296156     -0.66117865168853
  O           0.82685149196795     -0.53667476207905      1.71543225265452
  C           0.74857311353125     -1.94076080126585      1.60648882819649
  C          -0.47589547126712     -2.53542452759468      2.25446442558781
  C          -1.25941254601886     -1.74088674099494      3.08312195987567
  C          -2.40735615960333     -2.22571782671516      3.68400875252646
  C          -2.80944975589423     -3.53681287359480      3.46729535874399
  C          -2.04676285447014     -4.35274793195606      2.66210141304937
  C          -0.88055004689923     -3.86805813290758      2.05988935173584
  N          -0.14372041714004     -4.78145251363506      1.26841459046221
  O          -0.66252442657951     -5.85954814280135      0.97793649712537
  O           0.99116504472509     -4.48438176436964      0.89447776332090
  C           1.06152010967720      2.14527424670733     -3.91592349936196
  N          -0.08611456992786      2.51260001792693     -3.12487956132968
  H          -0.56000789635645      1.77787043101137     -2.62202045187720
  H           0.76456857384815      1.46752295465186     -4.71584979247270
  H           1.47866840570359      3.05453742875003     -4.34512537578279
  H           1.81449707685438      1.65949978212051     -3.29392177856619
  C          -2.83576191485724      6.04246964185879     -1.23880504127241
  O          -3.67720291596430      5.49112535922488     -0.54030626549976
  C          -2.74329081746547      7.53002226307798     -1.41990043385189
  H          -3.52661047358990      8.01104117246607     -0.84209714424149
  H          -1.77335596759481      7.88815793495746     -1.08378635678576
  H          -2.85972851464844      7.78441413969481     -2.47045067541084
