47
Coordinates from ORCA-job /home/esp/scriptDevelopment/drFrankenstein/11_PCY_CHARMM/04_torsion_scanning/torsion_NH1-CT1-CG321-CG2R61/scans_PCY_conformer_4/PCY_conformer_4_forwards/orca_scan E -79.900812371810
  H          -0.85513226920513     -2.46120234352240     -0.41432255518577
  H          -0.06318266867345     -1.38536581188806      2.90990035031603
  H           2.24988359485225      0.40954638076061      0.69766133134322
  H          -1.66937524965529      4.15844384418021      0.41591610740225
  H           0.29455837326891     -3.47424889184467      0.45551627381469
  H           1.73529647798881      2.79316667937978      0.41900998506069
  H          -1.89291015737141     -0.53613432543491      0.26345852400649
  H           0.05296301653349      4.58383573688020      0.34514490505779
  H          -3.63426543616670     -2.81501996694248      4.76766777452176
  H          -2.39993176371811      1.82262734220707     -0.02980197084602
  H          -4.15827154985130     -4.10042812615884      2.71410179193325
  H          -1.92918847120079      4.17108391966688     -3.19546836847799
  H          -1.55481275349005     -1.46787085909414      4.85293394161397
  N          -2.06843502575927      4.05795199833141     -2.18429829368634
  C          -0.88043230489921      4.18751416459033     -1.53751850474622
  C           0.20935568475859      4.43870993573338     -2.47196384379212
  C          -0.72067139313320      3.94436592795882     -0.07765651278251
  O          -0.04125196992048      4.54683131589853     -3.69092655966892
  C          -0.37461742776172      2.48259925939802      0.14062987874843
  C           0.93570483388072      2.07148872252421      0.35652933499454
  C           1.23716822478766      0.73645956062233      0.52543185774415
  C           0.22993881077750     -0.22663390846068      0.47886208024117
  C          -1.08452187336766      0.17754069440681      0.27863757719637
  C          -1.37302377648698      1.52032227455145      0.10790752392598
  O           0.64090409538443     -1.51904064889806      0.65762470549663
  C          -0.30254041864955     -2.55896636195541      0.52832639387419
  C          -1.24580513037308     -2.67363017050649      1.69872609961771
  C          -0.96534891376018     -1.97488286858809      2.86705560574941
  C          -1.80777449283222     -2.02157584220955      3.96327847440766
  C          -2.97180824580151     -2.77705392151276      3.91882052616861
  C          -3.27081885043173     -3.49041339920527      2.77979191928879
  C          -2.41577804794348     -3.45297937997515      1.67293660206498
  N          -2.78651567731877     -4.23503073042715      0.55296176571762
  O          -3.92205704535999     -4.70906633465422      0.51686120531176
  O          -1.97259577613713     -4.42745382405583     -0.35055766308658
  C           2.61369382953208      4.77508132012655     -2.80594625406325
  N           1.45345931086707      4.56872568125315     -1.97604864658816
  H           1.60669007788086      4.43612669808760     -0.98998522695686
  H           3.29002701054466      3.92261887522932     -2.73376047639575
  H           2.27608560300532      4.88107778070070     -3.83529024236972
  H           3.13876101446730      5.67985774977768     -2.50039611746482
  C          -3.35318586398802      3.91395755571892     -1.73046155621614
  O          -3.64525729228649      3.81908546454434     -0.54500923248026
  C          -4.35990055059687      3.87649325638996     -2.84449632988181
  H          -5.35538560040988      3.76375374218134     -2.42571526455689
  H          -4.31214963721257      4.79540569630811     -3.42339431129167
  H          -4.14855432476728      3.04030613792642     -3.50671460508037
