47
Coordinates from ORCA-job /home/esp/scriptDevelopment/drFrankenstein/11_PCY_CHARMM/04_torsion_scanning/torsion_NH1-CT1-CG321-CG2R61/scans_PCY_conformer_4/PCY_conformer_4_forwards/orca_scan E -79.890967682040
  H          -2.66404437941437     -2.25900272282132     -0.36857720249340
  H           0.14427676763274     -2.38117656781250      1.83603011067402
  H           1.42530839077793     -1.34960922503202     -1.51838090325756
  H           0.61177175717701      3.60210917142408      0.27743816997636
  H          -1.89706237327931     -3.83941164666955     -0.23340450097986
  H           2.02061039964078      1.03508360681301     -1.71428280080886
  H          -2.09594976620796     -0.28877717902706      0.65191809489201
  H           1.68145775149064      3.25860204670766     -1.08894695894485
  H          -2.07016777337349     -2.53745040606367      5.48713080694264
  H          -1.50715548732642      2.06204793254949      0.45894814306960
  H          -4.12940415324611     -3.00026863638587      4.18788020006798
  H          -1.92956050016446      4.55179751874488     -2.38662046292490
  H           0.07871620752314     -2.24708852328360      4.28433163536079
  N          -1.40672161291364      3.69525578799736     -2.15666624730861
  C          -0.21850908683393      4.04513299000450     -1.59225943876413
  C          -0.02795384788038      5.49315900668014     -1.63630893812636
  C           0.64794372843604      3.18180582906490     -0.73521622487776
  O          -0.88360349563947      6.20680668278963     -2.20132522312593
  C           0.29086717679994      1.72332089057132     -0.65154961072359
  C           1.12081892603743      0.74907720242016     -1.19152858306886
  C           0.79588682320292     -0.58612417183977     -1.09002651681073
  C          -0.37139398321321     -0.98064080156875     -0.43916505964933
  C          -1.19449274865117     -0.01559064111452      0.12622647278868
  C          -0.85550225265299      1.32120194994503      0.01854742679213
  O          -0.59875802321281     -2.33184121584695     -0.39939195982919
  C          -1.83157891794252     -2.79815541370548      0.10059483622114
  C          -1.93601834337505     -2.75278765533164      1.60393944972007
  C          -0.79218177126902     -2.51013847014032      2.35552773163991
  C          -0.83048780807614     -2.43399790052646      3.73617641534766
  C          -2.03220201533615     -2.59838946365975      4.41210400877174
  C          -3.18050139501601     -2.85209417115107      3.69629912344423
  C          -3.14366217693731     -2.93886742443021      2.30000334891289
  N          -4.36531288775230     -3.22550879250910      1.64633256240993
  O          -5.40915688015967     -3.16632263366232      2.29820833750175
  O          -4.36173255194517     -3.53021326521650      0.45262881998168
  C           1.37523105986677      7.42218105026339     -1.07986446231188
  N           1.07528042191282      6.01103278676915     -1.06222683537364
  H           1.76015938942438      5.40121437750788     -0.64707802356276
  H           2.28786962109008      7.61305970552799     -1.64518359822517
  H           0.54306307597801      7.93695738222963     -1.55659333474110
  H           1.49734513562407      7.79294038628333     -0.06248337513576
  C          -1.85157366242134      2.54255328254353     -2.76486257381963
  O          -1.15465549179115      1.55822071908685     -2.93944476453751
  C          -3.28456310918494      2.65133779337368     -3.20587546390064
  H          -3.60492662540123      1.69902765721278     -3.61730001709850
  H          -3.91627123361794      2.91628469021322     -2.36228734615073
  H          -3.38251227837898      3.42122648107477     -3.96745526796404
