47
Coordinates from ORCA-job /home/esp/scriptDevelopment/drFrankenstein/11_PCY_CHARMM/04_torsion_scanning/torsion_NH1-CT1-CG321-CG2R61/scans_PCY_conformer_4/PCY_conformer_4_forwards/orca_scan E -79.897520209820
  H          -2.93293568485642     -2.33131199853930     -0.09886084483531
  H           0.27256534024619     -2.19190843207613      1.49342840303347
  H           0.65546865058973     -0.52861275382290     -1.79770377040288
  H          -1.54106973693792      4.03104030643396      0.29906136006043
  H          -1.90153763353834     -3.73919272286985     -0.34374023116716
  H           0.83201006869043      1.93138728028599     -1.68898776194752
  H          -2.49504103726818     -0.41614001235741      1.08442325333471
  H           0.21904598741204      3.90478345476612      0.45091610638668
  H          -1.08501771859853     -3.11499706570569      5.43813679668712
  H          -2.33861868915995      2.00466619436601      1.16640439668531
  H          -3.27915677199403     -3.78344608540889      4.49881384587952
  H          -0.81066490944400      4.25430597236943     -3.46622908680264
  H           0.70011095535575     -2.33549938565733      3.90393319336860
  N          -1.18686618661176      3.84612436326472     -2.60383898682094
  C          -0.48463091199796      4.27977589469747     -1.52196759735207
  C           0.51102565357712      5.27699817395124     -1.89003764302876
  C          -0.63256459567256      3.65219152714566     -0.18198646567099
  O           0.64845827351162      5.58937975951847     -3.09163522984508
  C          -0.74867127020663      2.14677864154486     -0.25689795131881
  C           0.09792839870924      1.41761236695810     -1.08575719507362
  C           0.00874805444225      0.04377031299932     -1.15213472157623
  C          -0.93188868779908     -0.63840017262222     -0.38136618794555
  C          -1.76563081366321      0.08096191657322      0.46487987724024
  C          -1.66985893655047      1.46076956346250      0.51763797946507
  O          -0.93769940188639     -2.00082867113890     -0.52621716585213
  C          -1.94240363489405     -2.74850353457327      0.12166588073200
  C          -1.73326336718800     -2.88861819360727      1.60801101178268
  C          -0.50595231047379     -2.53515047209199      2.15639852806593
  C          -0.26612658945325     -2.61529381404105      3.51639276597030
  C          -1.26329079473870     -3.05377534300697      4.37734391521933
  C          -2.48580575014012     -3.42289408849730      3.86276246604794
  C          -2.72773626213396     -3.35341879777483      2.48639829416025
  N          -4.00170397031467     -3.77750210251618      2.03974274282087
  O          -4.89041455623495     -3.94941809317705      2.87493367454094
  O          -4.19183134713781     -3.97086927798414      0.83837860754289
  C           2.23518569659177      6.86125027083881     -1.17049034187208
  N           1.25083321734017      5.83901418645594     -0.91292902673656
  H           1.05573143685788      5.62392309971522      0.05124173204279
  H           3.20275198554099      6.55829933441555     -0.77111611074649
  H           2.31057869451193      6.99073879920938     -2.24867970802334
  H           1.93654569975729      7.80605379403299     -0.71496957223062
  C          -2.36598592475922      3.14705845931318     -2.67328744052932
  O          -3.01072979540909      2.83475862020967     -1.68429648286223
  C          -2.77173523624352      2.82921057609509     -4.08386640754395
  H          -3.70118501788845      2.26831036692060     -4.07177915692872
  H          -2.91068916270934      3.74666230401475     -4.65036862732602
  H          -1.99729140722992      2.23793547791036     -4.56580111662807
