47
Coordinates from ORCA-job /home/esp/scriptDevelopment/drFrankenstein/11_PCY_CHARMM/04_torsion_scanning/torsion_NH1-CT1-CG321-CG2R61/scans_PCY_conformer_4/PCY_conformer_4_forwards/orca_scan E -79.901339906160
  H          -3.48745146214082     -0.42159399044902      2.35593380908780
  H          -1.29533154316223     -2.70288637996384      0.68491894012486
  H          -2.69394610908257     -0.53137621645132     -1.93885276315410
  H           1.13301181039401      3.20745145600895     -0.63205254334225
  H          -4.22646782006790     -1.94834386305685      1.88127451396537
  H          -1.08661070548204      1.12056040818077     -2.83011779813737
  H          -1.34918064842314      0.31783234478185      2.02597581301765
  H           1.41947612274748      2.15828827151573     -2.02653251749138
  H           0.71957913098501     -4.12489633905629      4.17233294596717
  H           0.21358778525440      1.95485653545092      1.14927176795966
  H          -1.01269568889579     -3.04980666012682      5.58181283091062
  H          -0.27546420947178      4.55589701240001     -4.08515454984062
  H           0.54845779791546     -3.95279101665118      1.70479338172469
  N           0.31069530972782      3.82598481353843     -3.66392010662703
  C          -0.01833954002866      3.65937979835011     -2.35753888055384
  C          -1.10074838030714      4.54278119760057     -1.94874341856694
  C           0.64738304053910      2.67975281773726     -1.45752923158304
  O          -1.59046329576643      5.34121691768312     -2.77420140698900
  C          -0.33321879106092      1.67132147398197     -0.90288802174956
  C          -1.15643671026060      0.95391375756579     -1.76602604659424
  C          -2.05164140800393      0.02790641227057     -1.27786823549340
  C          -2.14511964946999     -0.21011862626375      0.09464884599785
  C          -1.31835220470473      0.49148972962764      0.96233700590012
  C          -0.42746643191312      1.42631594260682      0.45894812260123
  O          -3.06433787037345     -1.15107625063249      0.46781193105431
  C          -3.29632565037355     -1.37141880758422      1.84162565180109
  C          -2.20170505200112     -2.14800645150517      2.52837020298243
  C          -1.22758151562727     -2.77355308081784      1.75910486883694
  C          -0.18678529871963     -3.47959657262223      2.33540338035099
  C          -0.08989290922758     -3.57892666821017      3.71686428808682
  C          -1.04688744146909     -2.98083243659276      4.50567393304931
  C          -2.10523782979900     -2.27286193154284      3.92577007432887
  N          -3.05612719136959     -1.70885311853184      4.81009034623995
  O          -2.79713317810885     -1.68326419221400      6.01309513648473
  O          -4.11308083149734     -1.26369953419766      4.36297166638919
  C          -2.60676373922760      5.26431814313088     -0.15782137474039
  N          -1.50897985465767      4.47987582672609     -0.66592757879498
  H          -1.14704659862439      3.74993403703034     -0.07187985994644
  H          -2.29508755542935      5.81038192662123      0.73196576453224
  H          -2.90336291967839      5.96868045947216     -0.93295876636031
  H          -3.45429699268732      4.62421877492516      0.09139298637458
  C           1.23119727332435      3.19965283228655     -4.46471644120596
  O           1.97357125409586      2.30933511359627     -4.07023784573232
  C           1.22688166767857      3.72324112620683     -5.87193211251237
  H           1.97796144449806      3.19655900999416     -6.45275031369379
  H           0.24914617702443      3.57299035858867     -6.32311246041048
  H           1.44760821292843      4.78774563859145     -5.87366593424869
