47
Coordinates from ORCA-job /home/esp/scriptDevelopment/drFrankenstein/11_PCY_CHARMM/04_torsion_scanning/torsion_NH1-CT1-CG321-CG2R61/scans_PCY_conformer_4/PCY_conformer_4_forwards/orca_scan E -79.897649960560
  H           0.57037911612612     -2.37383314496791      0.16854190528997
  H          -0.51504643771569     -1.04064763375597      3.31163354057710
  H           1.65825179219540      1.51131372232718      1.87226776907513
  H          -2.89931704916519      3.31039808996452     -0.49139483820497
  H           1.54839085076124     -2.83179132712187      1.55965814376643
  H           0.45557394245621      3.49471749522841      1.02229249904714
  H          -1.26317014875051     -1.02500674920704      0.06065663535136
  H          -1.75365595115945      4.35415270750723      0.29563588266458
  H          -3.73593615284621     -3.77468498063740      3.93701907691105
  H          -2.43372455408821      0.92797240948126     -0.79166163657855
  H          -2.86673172940785     -5.18273744027789      2.09207573797280
  H          -1.79935562972310      5.53495771970954     -3.12652658178813
  H          -2.52371507391153     -1.70007413703093      4.54905645002875
  N          -2.15805026076469      5.23678975475737     -2.21105788351500
  C          -1.46922146538539      4.14934876161619     -1.76864036075212
  C          -0.44711130916269      3.76021019382403     -2.73334993581572
  C          -1.83109390632717      3.55446928186356     -0.45060443512170
  O          -0.33307970031840      4.42692385511264     -3.78521788641303
  C          -1.06715823560543      2.35402218073334      0.03265496507704
  C           0.08693051112577      2.50514737925921      0.80113118970078
  C           0.76480673001843      1.40401810904687      1.27901255141492
  C           0.29824011681449      0.11533186410975      1.01246038692099
  C          -0.86191143089450     -0.04524271181787      0.26367303655670
  C          -1.53147877287508      1.06823525460269     -0.21618303485606
  O           1.04320729260343     -0.90044972085736      1.54072964360981
  C           0.68494627023210     -2.23340095623525      1.25025639761141
  C          -0.53941038281823     -2.70876689396863      1.99069288784459
  C          -1.03630884327229     -1.94505081689930      3.04010823111800
  C          -2.17062253572523     -2.31761033581390      3.73909754119528
  C          -2.84973251927248     -3.47996405838278      3.39972519231416
  C          -2.37444637470488     -4.26478953568337      2.37318783551455
  C          -1.22196017572106     -3.89599794569940      1.67037534749077
  N          -0.79004031465088     -4.77226010349301      0.64774678616890
  O          -1.54671530505539     -5.67691523052126      0.28785071654778
  O           0.32523422832135     -4.61950863615014      0.14444771744475
  C           1.37710720682443      2.25529222371126     -3.36475325665640
  N           0.33925065398696      2.70189766575343     -2.46960697925752
  H           0.20977831343940      2.19737693885504     -1.60516343334934
  H           1.19105335636954      1.22648612693499     -3.67344514965817
  H           1.37299974203775      2.90420894245141     -4.23868504824495
  H           2.34843624075383      2.31148588897360     -2.87304765201348
  C          -3.19609920449782      5.93710284967476     -1.65495385063646
  O          -3.69263429337314      5.65426680013186     -0.57295195403351
  C          -3.65153584945346      7.08046411088188     -2.51556352266778
  H          -4.46966579796731      7.59712177027254     -2.02318225726913
  H          -2.83046187086698      7.77382644284475     -2.67911040461652
  H          -3.98620508858606      6.70917381889194     -3.48092796576621
