47
Coordinates from ORCA-job /home/esp/scriptDevelopment/drFrankenstein/11_PCY_CHARMM/04_torsion_scanning/torsion_NH1-CT1-CG321-CG2R61/scans_PCY_conformer_4/PCY_conformer_4_forwards/orca_scan E -79.901340093500
  H           0.93005195365096     -2.06225171729384      0.71865813817210
  H          -1.18915316836992     -0.71216094155774      3.26006654421663
  H           0.69846348023888      2.13612288913606      1.91273781050363
  H          -2.97391290343758      2.38265459271578     -2.18362957506172
  H           1.61823754698128     -2.09700620310742      2.33957143884946
  H          -0.65709187248399      3.63779207410965      0.49425854341854
  H          -1.07966194001875     -1.24883810930047      0.00769073350614
  H          -3.18030649854414      3.47397874076464     -0.80826260555911
  H          -3.72426813123995     -4.12336189174050      3.68347867737959
  H          -2.39347285373716      0.22902452533634     -1.39981261771307
  H          -2.10788167982923     -5.45831296751707      2.36161528162685
  H          -1.07574352346987      5.85425548755309     -2.47196303019740
  H          -3.23248430746972     -1.73634110909071      4.14084231492427
  N          -1.76460889691363      5.33529460561964     -1.91537150390687
  C          -1.60093620918463      4.00006392739351     -2.09653598988123
  C          -0.50186181190918      3.70072658131670     -3.00308697154481
  C          -2.43932614997243      2.96780552011639     -1.43018148826137
  O           0.14582682521967      4.63577390301095     -3.51755780100955
  C          -1.61099311644250      2.04188654463835     -0.56830588693524
  C          -0.73752171744698      2.56764322813451      0.37927814962724
  C           0.01849524495066      1.73756263401355      1.17716669614652
  C          -0.08288749122526      0.35085797962459      1.05153254921273
  C          -0.96115269227101     -0.18283417913599      0.11742753013860
  C          -1.70987692325894      0.66341143901440     -0.68514129695397
  O           0.70978155313027     -0.37616781073657      1.89584571961942
  C           0.74331610913468     -1.77989286842092      1.76207706902273
  C          -0.48289643948092     -2.47399589129409      2.29831313314910
  C          -1.39601902582899     -1.75107056282895      3.05692243107752
  C          -2.54966307144490     -2.33001593524864      3.55475932983113
  C          -2.82610214230030     -3.66687888671950      3.30173420384529
  C          -1.93404009725353     -4.41308331112578      2.56477650546198
  C          -0.76206607883046     -3.83287344721984      2.06709259894338
  N           0.11026712315672     -4.67886628284185      1.34075241644881
  O          -0.28895534083027     -5.79783049865075      1.01881817308438
  O           1.24018657691834     -4.28445236055763      1.05260294662872
  C           0.84324624167104      1.98106008738581     -4.11252698882760
  N          -0.25191047863463      2.40496062634212     -3.27626468976084
  H          -0.74476582352501      1.69170451892175     -2.76169508467259
  H           0.47810370750611      1.32683473151925     -4.90359706094991
  H           1.29309420421019      2.86927178438878     -4.55258427329322
  H           1.59284299384534      1.45037808795295     -3.52382294196177
  C          -2.64236731950543      6.05511089096324     -1.14568197283330
  O          -3.49932451025022      5.53960744344026     -0.43905736077786
  C          -2.43612850781163      7.53765529974445     -1.26391524503494
  H          -3.15193068872730      8.05102175536649     -0.62914928795157
  H          -1.42645584664710      7.80079943402121     -0.95849259610463
  H          -2.57715630231840      7.85095564184375     -2.29542266564220
