47
Coordinates from ORCA-job /home/esp/scriptDevelopment/drFrankenstein/11_PCY_CHARMM/04_torsion_scanning/torsion_NH1-CT1-CG321-CG2R61/scans_PCY_conformer_4/PCY_conformer_4_forwards/orca_scan E -79.901292373850
  H          -3.57146753585068     -0.56635270463010      2.09337719441407
  H          -1.05626979392136     -2.70845178519965      0.72048071084904
  H          -2.34851901122016     -0.74289528569787     -2.10029334890043
  H           1.14703689895203      3.23634805728063     -0.57548634371844
  H          -4.14292515403949     -2.15877711612639      1.60351187320290
  H          -0.77448324617457      0.98960171842261     -2.89396903659348
  H          -1.46513771662812      0.32445527282375      1.94048808600474
  H           1.48468384600843      2.24759674846350     -2.00780664963535
  H           0.70802565728720     -3.86903013863249      4.43313759279219
  H           0.06748715901867      2.03358564641834      1.15943909670101
  H          -1.23530700870787     -2.90375871184460      5.63060719274003
  H          -0.42814244370452      4.52163265048931     -4.02785664274399
  H           0.76889074301348     -3.77763139758745      1.95597544632491
  N           0.17449867878527      3.78934616556546     -3.63532509593754
  C          -0.01699887423355      3.69631713212569     -2.29485501507813
  C          -1.03146202050045      4.62665665715056     -1.82169708955196
  C           0.69329995327195      2.72084453880319     -1.42455141746094
  O          -1.56005520056472      5.42429623106396     -2.62358800895788
  C          -0.25933485563127      1.65509003387614     -0.92544289308387
  C          -0.94254239490666      0.85527909554851     -1.83631016539498
  C          -1.81577966215738     -0.11734028778359     -1.40228421317723
  C          -2.02900306577614     -0.31774287727825     -0.03716167484904
  C          -1.34200451292891      0.46772672253567      0.87896121742959
  C          -0.47066649516290      1.44720061074940      0.42873050339002
  O          -2.91282641397071     -1.31155145835692      0.28031940223616
  C          -3.25965400930528     -1.51185678344781      1.63281050125601
  C          -2.18191837323814     -2.18086267676599      2.44752526501377
  C          -1.09037431401427     -2.74527395420777      1.79793165786642
  C          -0.05988280316701     -3.34916054254816      2.49603589934874
  C          -0.09278529353447     -3.40340292043620      3.88298328343912
  C          -1.16766286210855     -2.86541272372016      4.55451480787083
  C          -2.21592415597271     -2.26208499767208      3.85105889517580
  N          -3.29339132573064     -1.75841565502870      4.61916119480787
  O          -3.16006629084224     -1.68398038486377      5.84049074861120
  O          -4.33243850207367     -1.41368900796461      4.05633797793976
  C          -2.35838639321742      5.44157188344037      0.06829252505952
  N          -1.33788598267443      4.60282777865285     -0.50950626094044
  H          -0.96355456390231      3.86626660737010      0.06750789074601
  H          -1.95498412568389      5.98513784153583      0.92202257893422
  H          -2.68356869386244      6.14795375985520     -0.69339181522891
  H          -3.21143646213736      4.84374238989829      0.39242143965639
  C           1.00121228647780      3.10992580835568     -4.49349846759248
  O           1.75607908354149      2.21486077516797     -4.13595541484399
  C           0.87283250448770      3.57961424751698     -5.91395759677640
  H           1.54499448196738      3.00519904180496     -6.54411781487336
  H          -0.14951097971680      3.44789620439520     -6.25978812490936
  H           1.12629924444969      4.63467779048240     -5.98131989156218
