47
Coordinates from ORCA-job /home/esp/scriptDevelopment/drFrankenstein/11_PCY_CHARMM/04_torsion_scanning/torsion_NH1-CT1-CG321-CG2R61/scans_PCY_conformer_4/PCY_conformer_4_forwards/orca_scan E -79.898986273910
  H           0.54024499647616     -2.27872219636388      0.11947918945887
  H          -0.57233388521876     -1.06225282654592      3.29354178336642
  H           1.87521519133889      1.37909022892929      2.11738886584995
  H          -2.36250976216146      3.89110212342301      0.17880121665374
  H           1.42907888200710     -2.90709297501612      1.50400969656959
  H           0.88315004431037      3.50663758623585      1.35554695791994
  H          -1.16842507958392     -0.77906169394160      0.03705815175244
  H          -0.81851441226128      4.69721219355763      0.25238077238149
  H          -3.99093652965643     -3.59751586472820      3.64634946371428
  H          -2.13478171594549      1.32054702705999     -0.72683776856713
  H          -3.14770856613723     -4.95709395479532      1.75375672928842
  H          -2.17992164896087      5.03075372510246     -3.21282892295875
  H          -2.66751353565750     -1.64804902567188      4.41875554442162
  N          -2.29608657341712      4.96718974889767     -2.19457577025651
  C          -1.40429617227180      4.08148394255925     -1.67432069291219
  C          -0.52080181528511      3.55895391840999     -2.71133965694282
  C          -1.33842133520353      3.84676278137215     -0.20644250632982
  O          -0.76651303661905      3.83122969136103     -3.90596133912004
  C          -0.69007374633095      2.56587006660656      0.24046792530141
  C           0.43901726091795      2.56982954090391      1.05576200978716
  C           1.00041392889035      1.38586961305159      1.48775248826127
  C           0.44018105895355      0.16228492208607      1.12046551798714
  C          -0.69726342618685      0.14854870177218      0.32003946390771
  C          -1.24973801770940      1.34213355389822     -0.10910438755371
  O           1.07617890575847     -0.94517604795079      1.60687107909866
  C           0.62643226896203     -2.22174303796520      1.21148158229437
  C          -0.65715442701230     -2.64839837398679      1.87746729507366
  C          -1.14232983166478     -1.91153271146618      2.95129284963035
  C          -2.32545451563921     -2.24279020650723      3.58727888154262
  C          -3.06706323569708     -3.33511187260422      3.15799319585661
  C          -2.60612758266867     -4.09250804688511      2.10470658432838
  C          -1.40545652378274     -3.76547518806853      1.46453227786301
  N          -0.99532988683314     -4.61059263400249      0.40718888732223
  O          -1.79204038381742     -5.44851153180467     -0.02077363881782
  O           0.14034430614980     -4.49747544886476     -0.05905181304401
  C           1.46625255804081      2.25423415987401     -3.29592146553727
  N           0.55584043722525      2.84074734863451     -2.34459400928687
  H           0.70122865117668      2.63567245801654     -1.36697867195512
  H           1.43345391898912      1.16582692595521     -3.23109057720080
  H           1.16143658543048      2.56697561097897     -4.29305251243000
  H           2.48275880983555      2.59441388642564     -3.10102280142727
  C          -3.32112166230591      5.67002556026655     -1.61634065157919
  O          -3.57056230448955      5.63222469056563     -0.41849198539203
  C          -4.09243005724859      6.49214865563799     -2.60816182042216
  H          -4.87991869462743      7.03256271148458     -2.09186797653581
  H          -3.42939181359132      7.19917998290999     -3.10029658813853
  H          -4.53201762647751      5.84757228119231     -3.36535285322351
