47
Coordinates from ORCA-job /home/esp/scriptDevelopment/drFrankenstein/11_PCY_CHARMM/04_torsion_scanning/torsion_NH1-CT1-CG321-CG2R61/scans_PCY_conformer_4/PCY_conformer_4_forwards/orca_scan E -79.894705200710
  H          -2.82167273332903     -2.17176947496954     -0.29088063920251
  H           0.13162170629984     -2.37856808391084      1.72665422928377
  H           1.27210850642256     -1.60561312155250     -1.69600399304156
  H           1.20874898034020      3.36838251910822     -0.15902996088409
  H          -2.14261115158672     -3.78544676929287     -0.09541918336815
  H           2.02434801093556      0.71484398345848     -2.04561213622638
  H          -2.07891752511656     -0.17803688478300      0.53462620632029
  H           1.70496520959961      3.01067186703271     -1.81928350908721
  H          -1.82228506422633     -2.08753406999885      5.51556379235840
  H          -1.33251175608493      2.10839567010368      0.19242210182895
  H          -4.00103046844181     -2.45127883111722      4.39081804366622
  H          -2.01070681541851      4.31587845269590     -2.27920140130931
  H           0.25215056018680     -2.07412563956613      4.15740731379830
  N          -1.32258243969867      3.55441159202650     -2.27591298994606
  C          -0.19278190466107      3.94515105611451     -1.62592119118938
  C          -0.23670752658364      5.35991650322661     -1.27564913639286
  C           0.85368050755923      3.00850611814504     -1.12871292372494
  O          -1.25292555436560      6.03089518026003     -1.55225174845363
  C           0.39260979286116      1.58330355889484     -0.96058644104681
  C           1.12844510986647      0.52317744139272     -1.47617660468729
  C           0.71415826735057     -0.77758867547810     -1.28922581007575
  C          -0.45157365821099     -1.05281023638977     -0.57579072645077
  C          -1.18264653253501     -0.00105319502972     -0.03898735338419
  C          -0.75470852243530      1.30085191462144     -0.23353818658501
  O          -0.77108980508822     -2.37969776361233     -0.45352155779732
  C          -1.99167083430622     -2.73075939105051      0.15872018247098
  C          -1.98415211204532     -2.57807273228276      1.65870135380563
  C          -0.77311478748249     -2.38805440795047      2.31390207761636
  C          -0.70634798713763     -2.21542823715685      3.68479160130208
  C          -1.86640943195056     -2.22468108521194      4.44781195437035
  C          -3.08030396623557     -2.42255742053417      3.82911058145652
  C          -3.15010526258782     -2.60776520460049      2.44386457030187
  N          -4.43466686968929     -2.82792911277087      1.89336044795982
  O          -5.42157031562728     -2.61126940679549      2.59832191974582
  O          -4.53970955938598     -3.23270168539393      0.73452846937854
  C           0.91748826593622      7.29262891685193     -0.30822444859091
  N           0.84050575930045      5.89817145821049     -0.66953792649384
  H           1.67049827324574      5.34323172166904     -0.53849656234660
  H           1.70651813696155      7.79223135929621     -0.87094401713169
  H          -0.03976556307991      7.75397396500838     -0.54427352360305
  H           1.11658170480061      7.39306351528188      0.75858618118833
  C          -1.54545094095467      2.48785419318496     -3.11455938339988
  O          -0.66526205197136      1.71163701474826     -3.44674318309260
  C          -2.97107442363897      2.40355509691772     -3.57977368913390
  H          -3.09084610771913      1.52745998339203     -4.20965909188625
  H          -3.63598397805102      2.32908996507486     -2.72303284794129
  H          -3.23425314202087      3.29343838273190     -4.14628086037902
