47
Coordinates from ORCA-job /home/esp/scriptDevelopment/drFrankenstein/11_PCY_CHARMM/04_torsion_scanning/torsion_NH1-CT1-CG321-CG2R61/scans_PCY_conformer_18/PCY_conformer_18_forwards/orca_scan E -79.896732896830
  H          -0.71580443400591     -3.37320690712775      2.92096204014593
  H          -0.29133500442643     -0.67768363508663      4.72391003682331
  H           0.53333514272968      0.01289439532995      2.09578846695479
  H           1.49384675221148      2.67271021295096     -1.65036518305172
  H           0.54926337198584     -2.12728479920078      3.07788122439251
  H           0.93979303615209      1.91066893714181      0.62882382420594
  H          -0.44220907523236     -2.40213604333579     -1.28905069004906
  H           1.10550584230576      1.69151057974252     -3.03404193782906
  H          -3.93812032514096      1.44973848254944      4.07475181739980
  H          -0.02999307362130     -0.47386869029510     -2.77709353763463
  H          -4.42299094856836     -0.01119445224476      2.12885025833970
  H          -1.11933507702685      4.53660229492473     -3.33011548169016
  H          -1.88360203394809      1.06494529968705      5.39883918706575
  N          -0.24321404253216      4.01443587314653     -3.20820219581141
  C          -0.44955109594990      2.94167098142032     -2.39120147118423
  C          -1.83435162712856      2.89349506112962     -1.94552591943579
  C           0.70249892020641      2.04578180841226     -2.07823000131742
  O          -2.63183571893133      3.75850942149871     -2.37322705145235
  C           0.45710841876920      0.86961549537300     -1.17713575477896
  C           0.62927327487493      0.97137217913497      0.19812473791319
  C           0.39553828359652     -0.10738405664512      1.03450480980486
  C          -0.00719190896170     -1.32369940398947      0.49507247189251
  C          -0.14401093713332     -1.44617604199149     -0.88841513097128
  C           0.08822026273979     -0.36452156220524     -1.71024350073570
  O          -0.29376399404124     -2.45063107623115      1.21288830068912
  C          -0.41996403441479     -2.36243597602544      2.62293687401699
  C          -1.45564971065499     -1.36270041436284      3.07487179355138
  C          -1.20544034620225     -0.54091814062986      4.16703458058647
  C          -2.09887253294119      0.44818279176308      4.54132708485106
  C          -3.25275832656284      0.66423237034203      3.80232975219326
  C          -3.52599535273814     -0.13988956511287      2.71436698019370
  C          -2.64805113186942     -1.16608152248955      2.37299027323151
  N          -3.03695770137827     -2.01656265703094      1.29458021910441
  O          -2.88564341544419     -3.22440670963486      1.41160984542321
  O          -3.55652768755380     -1.49078116944914      0.31566384177883
  C          -3.57394571833556      1.81665667839700     -0.59739605917333
  N          -2.22145504428509      1.93708524053423     -1.08173651194825
  H          -1.54862940219464      1.25590754833358     -0.76688631099119
  H          -4.21992039401904      2.42669849512652     -1.22634478120871
  H          -3.88291504504336      0.77286450394356     -0.63995787536911
  H          -3.64080602973407      2.17120509165464      0.43318345825711
  C           0.87393690351622      4.44762079818834     -3.86709878625038
  O           1.95812905315191      3.88100506451097     -3.80106350389428
  C           0.62728802155289      5.69083660358644     -4.67476810343507
  H           1.55058798671134      5.99248130590738     -5.15977042338937
  H          -0.13190220586166      5.49920503010559     -5.42886745907175
  H           0.27739810537776      6.49165027825349     -4.02855420814217
