47
Coordinates from ORCA-job /home/esp/scriptDevelopment/drFrankenstein/11_PCY_CHARMM/04_torsion_scanning/torsion_NH1-CT1-CG321-CG2R61/scans_PCY_conformer_18/PCY_conformer_18_forwards/orca_scan E -79.896549082040
  H           1.99056400814274     -3.06412566082731      0.83056662008040
  H          -0.33573081103945     -3.67437001584886      2.88831946907712
  H          -0.35324397074621     -0.65646784335306      2.45325715315844
  H          -2.58652461547095      3.14420439258737      1.18213650036661
  H           1.46648279224711     -2.33085725586458      2.36784539130190
  H          -1.76443813539721      1.32190528508464      2.38655487885863
  H           2.03411151906185      0.93865448096124     -0.70686007199498
  H          -1.24598486678719      4.28983093190101      1.33737214534366
  H          -3.90010346155019     -3.51407650437630      0.54171496799390
  H           0.62217656370171      2.94979960569102     -0.75943858647370
  H          -2.64605794955840     -2.32498795442065     -1.23935289330142
  H          -2.90102783574860      3.78597935372254     -2.33619163422867
  H          -2.70327948397080     -4.23665788162856      2.58616625205712
  N          -2.88107457106139      3.35500857706533     -1.40658746736155
  C          -1.87356802898681      3.88261482758551     -0.65874719176829
  C          -1.13544987461356      4.90718899085347     -1.37303850532411
  C          -1.63886878908029      3.45916985362165      0.74619038690165
  O          -1.46453529064062      5.20900167837817     -2.54055734866040
  C          -0.68195316569686      2.28259337113664      0.81439206048778
  C          -0.92389081318968      1.25561703710681      1.71379537149414
  C          -0.12752956714414      0.12526248454977      1.74658519179759
  C           0.92849605146080      0.00028474304374      0.85155429251338
  C           1.20609403169934      1.04869155118810     -0.02382423786036
  C           0.40750475880033      2.17261604918473     -0.04237214049052
  O           1.73505685972361     -1.09877822776147      0.73385878820636
  C           1.30924891430938     -2.33489299715755      1.28177451712067
  C          -0.11984558513473     -2.72395632984145      0.99297266256727
  C          -0.83902626519141     -3.39804316056245      1.97474245632829
  C          -2.17784915647234     -3.70492463985646      1.80945774671733
  C          -2.85032010631563     -3.30515530918083      0.66345067698475
  C          -2.16175604543297     -2.63939708916690     -0.32815054854229
  C          -0.79951206144876     -2.37965798322222     -0.18065074284379
  N          -0.14322023334244     -1.78263006996404     -1.29598670954261
  O           0.99977808182595     -2.12598576826854     -1.56077720710201
  O          -0.77922826556522     -0.98435026097960     -1.97666632282213
  C           0.71438260671159      6.51745223148561     -1.35907990224746
  N          -0.11281609955718      5.51602366398737     -0.73360160644943
  H           0.16249104923251      5.19404078502191      0.18014428817109
  H           0.29020766366064      6.73767439592700     -2.33726078287173
  H           0.72795853209392      7.42379482106344     -0.75446780691458
  H           1.73469680943706      6.15120231204811     -1.48326198780057
  C          -3.74113063638433      2.31873078231445     -1.15484224394724
  O          -3.76373132403957      1.70069276399020     -0.09902897918260
  C          -4.65065221134400      2.02393259237535     -2.31444253748223
  H          -5.12714083911717      2.93306639499501     -2.67013256769473
  H          -4.06573684932531      1.59546810407137     -3.12605218145719
  H          -5.40504333275496      1.30683289133925     -2.00547961316350
