47
Coordinates from ORCA-job /home/esp/scriptDevelopment/drFrankenstein/11_PCY_CHARMM/04_torsion_scanning/torsion_NH1-CT1-CG321-CG2R61/scans_PCY_conformer_18/PCY_conformer_18_forwards/orca_scan E -79.890548101500
  H           0.86104787795163     -3.62306888975446      1.36084458489845
  H          -1.69127794482798     -2.78579376139118      3.13508570877022
  H          -0.82170284147210     -0.36514910327259      1.88356373840442
  H           0.11612612722151      4.25286462462923      0.97064903118042
  H           0.48007089365092     -2.35367425768706      2.55532136948488
  H          -1.18670190084598      2.01066700082910      1.52618263436740
  H           2.66980048204191     -0.19514682189135     -0.56846784028234
  H           1.04965918391637      4.18241900765887     -0.53264840222164
  H          -4.84625592991667     -2.61023791002167      0.26199478097244
  H           2.30667697401674      2.21919949587242     -0.91583103173692
  H          -3.15851715597387     -2.54969604220653     -1.55274027109490
  H          -2.83405292049128      3.30085439619743     -1.31040277292626
  H          -4.08760524343716     -2.78426458154572      2.61442741361084
  N          -1.87875003845564      2.95214722860367     -1.18029177787343
  C          -1.06031375314036      3.95987304204853     -0.74939693377780
  C          -1.70960149456191      5.25739756229176     -0.81030464277905
  C           0.20979171048401      3.73527222696456      0.00971541314773
  O          -2.87199019201911      5.35109092559540     -1.26006295311551
  C           0.51733105159645      2.28530053417799      0.26408195391993
  C          -0.33380751841674      1.53651601456296      1.06329342041319
  C          -0.12979372373601      0.18310585381023      1.26599868218562
  C           0.94523260242494     -0.44630836716692      0.65252006106655
  C           1.83438859684992      0.31038210324469     -0.11020398238647
  C           1.62279650778234      1.65882794664307     -0.29733963790906
  O           1.22251173675640     -1.78440669107014      0.71711712385214
  C           0.40484066085335     -2.63700447388267      1.49790065306335
  C          -1.05112234251872     -2.69526314509086      1.10387060254567
  C          -2.01532328802168     -2.74613439426110      2.10644181739834
  C          -3.36745488008625     -2.73540999842831      1.81372463222591
  C          -3.79531388999058     -2.64093084642716      0.49705706206164
  C          -2.86182767764244     -2.59803185089598     -0.51659510301291
  C          -1.49920425750739     -2.65124077364918     -0.22041477351530
  N          -0.60980551387806     -2.70186488586124     -1.33383502613026
  O           0.41828553647030     -3.35552244262283     -1.24337660630211
  O          -0.95304310121142     -2.12616136228100     -2.36052696555155
  C          -1.53854388402194      7.67592080337812     -0.44208534551397
  N          -1.01865822339724      6.33223172798277     -0.37075811698334
  H          -0.05849671946853      6.22389224665477     -0.08901767330772
  H          -2.57015809071146      7.61683498298878     -0.78453358756628
  H          -1.50697483795854      8.14208010172840      0.54234851157891
  H          -0.96061814539709      8.27751182373874     -1.14485824048632
  C          -1.55741402642701      1.77811297834642     -1.82653800949114
  O          -0.42194018291760      1.50812072640003     -2.17933139951117
  C          -2.74426660629535      0.88822774175817     -2.05983883961618
  H          -3.41365244905761      1.34483923841594     -2.78476385515990
  H          -2.39061950383730     -0.06223697103033     -2.45139473122356
  H          -3.28477166437563      0.73187723591620     -1.13058067567300
