47
Coordinates from ORCA-job /home/esp/scriptDevelopment/drFrankenstein/11_PCY_CHARMM/04_torsion_scanning/torsion_NH1-CT1-CG321-CG2R61/scans_PCY_conformer_18/PCY_conformer_18_forwards/orca_scan E -79.898550439330
  H           1.47461949835120     -3.44938779473584      0.58330864711935
  H          -0.83895933878992     -3.50871470461869      2.85288593554991
  H          -0.18913356515722     -0.70626200251437      2.48137193904325
  H          -1.95722564651699      3.43454129973835      1.48324485250343
  H           1.18797083520308     -2.65597242959131      2.15338523247661
  H          -1.29800574521841      1.45622829926450      2.56896748552904
  H           1.90051015920911      0.49686397484281     -1.04258076462102
  H          -0.44024926329582      4.31930380648963      1.24867363553381
  H          -4.41235267621987     -2.77898197126113      0.63170814106185
  H           0.79326901131815      2.70095315080482     -0.93771219835040
  H          -3.03834137418519     -2.00363099163917     -1.28151956522806
  H          -2.29781518269510      3.37356743737137     -2.27632310990048
  H          -3.28412252277938     -3.58867163625644      2.68159492638827
  N          -2.22437395270704      3.02490141604771     -1.31571040885960
  C          -1.54247539954139      3.91275437642410     -0.53809774042950
  C          -1.20516734699890      5.12147042860110     -1.27090857457084
  C          -1.08651335273623      3.54834248673650      0.83016128909907
  O          -1.53983803004208      5.22434529196790     -2.47144458771946
  C          -0.34878829778203      2.22773589359329      0.81536908358163
  C          -0.59064237764539      1.26147333250271      1.77876099213259
  C           0.03209496825709      0.02827571969299      1.72485968169998
  C           0.91202557318960     -0.25720228688549      0.68747910513907
  C           1.20284068736652      0.72940595495288     -0.25262611896369
  C           0.57748936354056      1.95608269178131     -0.18558388602610
  O           1.53217090481427     -1.46469268423887      0.49751659478411
  C           0.95700020175667     -2.62318908819318      1.08150301968288
  C          -0.53399532779939     -2.74786039578563      0.88625140868181
  C          -1.32196923848255     -3.19502946161414      1.94026869068840
  C          -2.70239435402814     -3.23040444070142      1.84769849813330
  C          -3.33723904152419     -2.78078076851030      0.69922717584688
  C          -2.58024931958403     -2.33944998389737     -0.36480285736739
  C          -1.18810054686946     -2.34974854959757     -0.28570902411480
  N          -0.47938852672409     -1.97040086127963     -1.46026882612267
  O           0.57578859171002     -2.52897530236709     -1.72646684594327
  O          -0.98934421305834     -1.12467543971068     -2.19068495417596
  C          -0.17775802956599      7.34695953350358     -1.26456264225275
  N          -0.54505683088086      6.10663186747423     -0.62745961581221
  H          -0.32382504247396      6.00913716889603      0.34977256948389
  H          -0.48420507617630      7.29089976528747     -2.30766999236248
  H          -0.68164790364582      8.18663344610607     -0.78500957548100
  H           0.90096046679408      7.49378298062285     -1.20987485076504
  C          -2.87609142586999      1.86471724829327     -0.98967963341033
  O          -2.97835011934192      1.45808809540438      0.15872070747883
  C          -3.43873221364299      1.14482297775100     -2.18081083407133
  H          -3.75913916956991      1.83350130386606     -2.95522340508335
  H          -2.65647422836318      0.49910755582378     -2.58161195537858
  H          -4.26979558159809      0.52152328955762     -1.86438764462766
