47
Coordinates from ORCA-job /home/esp/scriptDevelopment/drFrankenstein/11_PCY_CHARMM/04_torsion_scanning/torsion_NH1-CT1-CG321-CG2R61/scans_PCY_conformer_18/PCY_conformer_18_forwards/orca_scan E -79.898433417330
  H           2.22472992473785     -2.60347526541808     -0.22640875476386
  H           1.64187344235533     -1.91432568333331      2.97722092386235
  H           0.23434870357984     -0.08959572502571      1.58939935708225
  H          -3.77138744846298      2.70138840500809     -0.55130622763821
  H           2.12696542211627     -1.14930207374378      0.80127044476121
  H          -1.33597026090851      1.73751458745724      1.82035305083840
  H          -0.56518830225023     -0.26188517331000     -2.60253756058207
  H          -2.94597554299851      3.24865767358054      0.92132111819087
  H          -1.81164070355039     -4.31319845171929      3.73211735745392
  H          -2.17043643564344      1.60011910465356     -2.36478680040326
  H          -2.13063842898792     -4.59310373640628      1.28674567842735
  H          -2.21333033872088      5.31544781137809     -2.48038694171314
  H           0.11665940866236     -3.00507051670659      4.56280025603461
  N          -2.74277472867077      4.50989381088807     -2.12893952619967
  C          -2.29563426565400      4.16544913733017     -0.89048732156619
  C          -1.19068544880431      5.00358811148206     -0.46061724708581
  C          -2.80796390980063      2.99210731385297     -0.12974539398880
  O          -0.82899009637670      5.96611992864954     -1.17146857759490
  C          -1.84544492725514      1.82949501605952     -0.25997944395504
  C          -1.15993027107478      1.33006641355393      0.83557910581545
  C          -0.26635733325238      0.27810426109100      0.70976415231860
  C          -0.04119904827056     -0.28763290976847     -0.53773811576766
  C          -0.73708724962472      0.20256353712423     -1.64409077040708
  C          -1.62486090993452      1.24592720905479     -1.50357177438946
  O           0.81960073555911     -1.31754332112458     -0.79895559253103
  C           1.54146590186663     -1.90801456619520      0.27061361315980
  C           0.65581731298776     -2.65433068100013      1.23733279795057
  C           0.82353933559423     -2.51375038050570      2.60902282339499
  C          -0.04146624743904     -3.12246972852215      3.50291598975227
  C          -1.12178709123723     -3.85898176208050      3.04024334621278
  C          -1.30933046878570     -4.01515418768758      1.68119431040038
  C          -0.40809180888662     -3.44120236194540      0.78843670428957
  N          -0.60375487686322     -3.71750938285430     -0.59956626701277
  O           0.36974716229499     -3.97376506562178     -1.28994740599656
  O          -1.75347698044133     -3.73893589090571     -1.01819562710192
  C           0.53145076091939      5.44391207241417      1.22551749830424
  N          -0.60956288336341      4.71940441903476      0.72333107151613
  H          -0.86070456921405      3.86605947132028      1.19557344720066
  H           0.68602425583085      6.31039160447811      0.58498957968011
  H           0.34284960286825      5.77375398237920      2.24648149553504
  H           1.42566444919123      4.81920445019849      1.20589577374622
  C          -3.75534883683634      4.02055775844980     -2.90773392282264
  O          -4.46506513452240      3.07512323293629     -2.58226716876002
  C          -3.89862996395375      4.76166638884619     -4.20762665836652
  H          -4.11076215260631      5.81061150505948     -4.01627346508623
  H          -2.97624389137859      4.69371155941215     -4.77921699651820
  H          -4.71203586279456      4.32642809818185     -4.78027233567671
