47
Coordinates from ORCA-job /home/esp/scriptDevelopment/drFrankenstein/11_PCY_CHARMM/04_torsion_scanning/torsion_NH1-CT1-CG321-CG2R61/scans_PCY_conformer_18/PCY_conformer_18_forwards/orca_scan E -79.900700759340
  H          -0.64293725921452     -3.62273654736734      2.11520420852271
  H          -0.28341887958353     -1.74574815593667      4.66386499389018
  H           0.38620970628694     -0.06218370990281      2.28755371058123
  H           0.50822140118345      3.73030055454886     -0.38310582060908
  H           0.60771931518116     -2.46418697900813      2.63486789157776
  H           0.68812003869591      2.17507937921644      1.39248054053605
  H          -0.21705795015030     -1.56746718379503     -1.66356656876460
  H           1.52432940550990      3.11048001244353     -1.68904399731750
  H          -3.86232012975673      0.58485455302856      4.73349368597364
  H           0.11835357688105      0.70449032910059     -2.57418127056703
  H          -4.30310943449015     -0.05999425133082      2.37869148462816
  H          -1.12342171581504      3.79384678750796     -4.00748607094997
  H          -1.86466910516361     -0.31957383046258      5.88321680704211
  N          -0.24429585262572      3.65056163812600     -3.49791155201763
  C          -0.50588343298311      3.31951451295471     -2.20523571068506
  C          -1.93209542567961      3.22149865010289     -1.94268204096426
  C           0.55073663092402      3.00960079710810     -1.20420743855639
  O          -2.74658363959665      3.47257003871097     -2.85624857900255
  C           0.40284647762159      1.61040496981520     -0.65255495004572
  C           0.48551236482180      1.36348251842542      0.70998258159903
  C           0.31337044593966      0.08846717149341      1.22328385803849
  C           0.03899709381746     -0.96778417663063      0.36388890776794
  C          -0.01459025011854     -0.73262139263758     -1.01109386894016
  C           0.16787073792276      0.53831485706705     -1.50870574668856
  O          -0.20182458878623     -2.25765885358692      0.74535831599485
  C          -0.35552601942305     -2.56614613877161      2.11980880841630
  C          -1.39946842556697     -1.75551513955141      2.84780560521894
  C          -1.17518275801702     -1.39038645258418      4.17119571534238
  C          -2.06133201663084     -0.57678283890502      4.85502052383679
  C          -3.18340889272910     -0.07093881069332      4.21421683407906
  C          -3.43149870556580     -0.41988827897904      2.90301926424040
  C          -2.56304710505780     -1.28208798297828      2.23502737886926
  N          -2.94068175465778     -1.67119864854618      0.91554280775733
  O          -2.78472208499163     -2.83358546381230      0.57455673165097
  O          -3.45651137803712     -0.81949555542395      0.19953242588091
  C          -3.69102968130674      2.60296285565274     -0.35718316392229
  N          -2.31882162909154      2.90175263875747     -0.68913032090291
  H          -1.61760749881575      2.57329716892604     -0.04265033815042
  H          -4.32045588727705      2.96677900981454     -1.16702065526104
  H          -3.83336883911004      1.52483664181659     -0.25018876663838
  H          -3.95958470406781      3.10245450744815      0.57188672028273
  C           0.92986618134068      3.80102289748063     -4.18519755966615
  O           2.03544135466216      3.65057413743038     -3.67742115491253
  C           0.71661289859370      4.17084818460324     -5.62567135696169
  H           1.67982590917676      4.26840172023330     -6.11707188156498
  H           0.13012464546485      3.40389367837433     -6.12546816100920
  H           0.17927686028597      5.11371018071667     -5.69047282762914
