47
Coordinates from ORCA-job /home/esp/scriptDevelopment/drFrankenstein/11_PCY_CHARMM/04_torsion_scanning/torsion_NH1-CT1-CG321-CG2R61/scans_PCY_conformer_18/PCY_conformer_18_forwards/orca_scan E -79.900113424330
  H          -0.40516474185827     -2.91589560940565      3.25556879744414
  H           0.16154379335386     -0.08371856234460      4.61744623542565
  H           0.46316004493470      0.33020874377811      1.68169707889330
  H           1.24578917641369      1.84913938808624     -2.91491864833489
  H           0.84113052994635     -1.66050510844340      3.03376417568269
  H           0.62224330985852      1.90465715108917     -0.16702672149168
  H          -0.46946092781621     -2.80336877380788     -1.06608512277200
  H          -0.06459242968191      1.00656989134256     -3.74239915063003
  H          -3.49902322683254      2.05074408416972      4.07837530727291
  H          -0.28921193512000     -1.20898322594824     -2.94065442644615
  H          -4.17870618270493      0.40971117934992      2.34814681850958
  H          -1.01620817295362      4.58403339486285     -2.43500065544554
  H          -1.33876145889587      1.75313559665169      5.24987012126572
  N          -0.23992994775718      3.94566435199102     -2.64394438630027
  C          -0.66211634347842      2.65635946677193     -2.54479961032980
  C          -2.06965880890569      2.57125196086862     -2.18841721402735
  C           0.22207944003944      1.48629937932021     -2.80115474897504
  O          -2.70848627276218      3.61962944115419     -1.95361736150861
  C           0.15489983549329      0.47427415612178     -1.68322967652139
  C           0.37659447702056      0.87388322832656     -0.37305186626282
  C           0.28617335095853     -0.02039540932475      0.67838990504270
  C          -0.03793432793525     -1.34867794408678      0.42659211917033
  C          -0.23063615255017     -1.76646150164722     -0.88998657343399
  C          -0.13478788995703     -0.86458171503467     -1.92879809960745
  O          -0.20078562476151     -2.31873674198634      1.37527316311711
  C          -0.17076007442849     -1.97396867581913      2.74873198223287
  C          -1.15867639095138     -0.91107280681158      3.16257165129428
  C          -0.79916346981168      0.01460612190507      4.13609139697651
  C          -1.64024561760706      1.05701981971269      4.48392456286660
  C          -2.85348964090265      1.22417581810903      3.83183517743412
  C          -3.23535088582011      0.31863382100244      2.86369230830512
  C          -2.40874942230902     -0.76059627074287      2.55652001304752
  N          -2.91486655146876     -1.70940607734976      1.61877426720066
  O          -2.76025077912658     -2.90032516424680      1.84223841859544
  O          -3.53066488738674     -1.27717892437457      0.65068776525113
  C          -4.00874306743056      1.13472956418776     -1.75305092269078
  N          -2.64290442544283      1.35243676778397     -2.16132255014547
  H          -2.07084328592231      0.53415282915151     -2.29880265395402
  H          -4.60156753911623      0.76701757504583     -2.59156647058219
  H          -4.04313384137810      0.40189693830972     -0.94638434576726
  H          -4.41650972063150      2.08569900036809     -1.41540073937792
  C           0.98764221174858      4.49034731089084     -2.90855644652298
  O           1.98909657497657      3.82257840479349     -3.14189763342413
  C           0.97364366556363      5.99255491757109     -2.88681936448963
  H           1.97158430896080      6.36333435168399     -3.09989110081762
  H           0.28068358309891      6.36699544015556     -3.63612988080457
  H           0.65409974133732      6.35015241681855     -1.91128489436479
