47
Coordinates from ORCA-job /home/esp/scriptDevelopment/drFrankenstein/11_PCY_CHARMM/04_torsion_scanning/torsion_NH1-CT1-CG321-CG2R61/scans_PCY_conformer_18/PCY_conformer_18_forwards/orca_scan E -79.899115269730
  H          -0.50714312101715     -3.60617513584629      1.90762364414652
  H          -0.38127377691668     -2.06872384600410      4.58919171299014
  H           0.28101976529083      0.01045915328086      2.29491700512220
  H           0.30961308754203      3.89426404584615     -0.22935952611033
  H           0.67978342402947     -2.45313691968001      2.56624841392930
  H           0.45740502617548      2.29441194781385      1.49275531658842
  H           0.16603159548836     -1.40009617257304     -1.73451823962869
  H           1.43078423953195      3.41221442537752     -1.51463096451900
  H          -3.93390602306487      0.29858148458088      4.70660963943136
  H           0.39865216239491      0.91801979731292     -2.54840276460371
  H          -4.18958887479888     -0.00558324529666      2.25903952068654
  H          -1.20755592581745      3.52213652963843     -3.97152854782361
  H          -2.04035718275030     -0.79564229270409      5.87035221691693
  N          -0.33154841369518      3.45205779531340     -3.44285787062247
  C          -0.59009172034966      3.44055276947879     -2.10725118895525
  C          -2.01624490679918      3.41616590365155     -1.82864097503652
  C           0.45277897714992      3.21429529429160     -1.07009848728373
  O          -2.83275663836185      3.57648174232865     -2.75965965454034
  C           0.41031591694836      1.78030801770481     -0.58525898925150
  C           0.38873155401772      1.49378734552492      0.77151162517363
  C           0.28730102115310      0.19189084807262      1.23253366408893
  C           0.17752446543292     -0.85251089744191      0.32293354289361
  C           0.23665358431042     -0.57454689484388     -1.04389929083637
  C           0.35498932836037      0.72354470475680     -1.48791051909407
  O          -0.00175877460464     -2.16762154666980      0.64282520229549
  C          -0.24707356104080     -2.54491094007075      1.98523889127202
  C          -1.34893859493027     -1.80943703191301      2.70796318723170
  C          -1.22851065933518     -1.63209302025891      4.08364502777515
  C          -2.15769987025745     -0.90386325586415      4.80427058058888
  C          -3.22141428137996     -0.29242581233984      4.15563250063143
  C          -3.36616787553395     -0.45258343993457      2.79395459115557
  C          -2.45644513160740     -1.23232150765146      2.07941659499433
  N          -2.73737890796278     -1.42147123258423      0.69397074067679
  O          -2.54956833481964     -2.52165324906956      0.19745365792983
  O          -3.20733790611305     -0.47135645885294      0.07586459296540
  C          -3.77326435537693      2.99126521578439     -0.18604140738965
  N          -2.39852225941143      3.25013395402572     -0.54250628044860
  H          -1.70373860613524      2.94126626594867      0.11981589072755
  H          -4.40614375372203      3.36338926175737     -0.98935758204137
  H          -3.94200479886797      1.91737577699920     -0.07069791826888
  H          -4.01058489930500      3.50550064796155      0.74268409829602
  C           0.84530690622476      3.45264003717683     -4.14296710973267
  O           1.94849119420671      3.41710981167498     -3.61064624958210
  C           0.63690969627428      3.49175641948006     -5.63070266300141
  H           1.60196124823353      3.47911830535685     -6.12805651394059
  H           0.05360209560673      2.63080810947050     -5.94815358996590
  H           0.09814386560312      4.39463728898931     -5.90730552583097
