47
Coordinates from ORCA-job /home/esp/scriptDevelopment/drFrankenstein/11_PCY_CHARMM/04_torsion_scanning/torsion_NH1-CT1-CG321-CG2R61/scans_PCY_conformer_18/PCY_conformer_18_forwards/orca_scan E -79.898947342950
  H           1.65096577201545     -3.21237838951688      0.49782397522831
  H          -0.61877487046550     -3.73821161709754      2.63961086477310
  H          -0.30811240125586     -0.70138342477829      2.46232681055856
  H          -2.33856661572070      3.28148507515964      1.39777032234504
  H           1.29620105805529     -2.59275926487847      2.12986423501990
  H          -1.59669803744167      1.36181464809126      2.51631115420665
  H           2.06736275613294      0.85570554311001     -0.72520162457276
  H          -0.94274673699842      4.36975355444215      1.37302177605554
  H          -4.26111212840634     -2.93593638182851      0.56098628012049
  H           0.78779273033571      2.96192120055659     -0.64430487002964
  H          -2.97043601527574     -1.75177954087278     -1.19356010589973
  H          -2.56206547346115      3.33076515952010     -2.25816957327599
  H          -3.05015469580716     -3.98335434859049      2.45184302829903
  N          -2.53206339545891      3.01844491149959     -1.28292145575023
  C          -1.72321602632276      3.82930361678540     -0.54799453743467
  C          -1.16701428671130      4.91042744258162     -1.34242418694269
  C          -1.41216441140711      3.52259329889399      0.87331651977397
  O          -1.51060238577760      5.03627602015524     -2.53770998457999
  C          -0.51589942538413      2.30223467361824      0.92950752516902
  C          -0.78648870330017      1.26751631785743      1.81120825359266
  C          -0.06256105087010      0.09042009038700      1.77368280371774
  C           0.94117874696043     -0.07337163979168      0.82542542482591
  C           1.27016562407558      0.99231276585426     -0.01100780844958
  C           0.54614824531013      2.16378875608823      0.04189015459168
  O           1.64181526189949     -1.23051604960611      0.62010179301813
  C           1.08764400403460     -2.46012181703624      1.06052852224380
  C          -0.39134481498677     -2.64539455576908      0.82459063958035
  C          -1.13387741397746     -3.31935029714261      1.78892761313499
  C          -2.50775277411240     -3.44793800066972      1.68947661943106
  C          -3.18836605930521     -2.86619773290830      0.62954862805152
  C          -2.47825782517878     -2.19996725476160     -0.34533096419983
  C          -1.08784655915365     -2.11480359471232     -0.26835717857071
  N          -0.42937986600708     -1.49758812389109     -1.36829114798143
  O           0.67201989899087     -1.90959644150844     -1.70934973026315
  O          -1.02365377185562     -0.60473076947718     -1.96911724866549
  C           0.33416655585662      6.84465430041115     -1.46210556520308
  N          -0.29334053049323      5.75568994948069     -0.75557479045276
  H           0.00531888494618      5.58834003911432      0.19136635195243
  H          -0.07655241146749      6.86979678813239     -2.47001954569087
  H           0.12478797959484      7.78922797584096     -0.96036846381579
  H           1.41321894620107      6.69522250881904     -1.51549788537995
  C          -3.22087031640417      1.88329266015425     -0.94428173296654
  O          -3.28345529442936      1.44945678110201      0.19683374647877
  C          -3.87623316067413      1.22539707058357     -2.12462064024493
  H          -4.31420465658335      1.95705586711409     -2.79581469183644
  H          -3.10889751323461      0.66721143641480     -2.66125079611018
  H          -4.63709683648108      0.53329079306928     -1.77668851385220
