47
Coordinates from ORCA-job /home/esp/scriptDevelopment/drFrankenstein/11_PCY_CHARMM/04_torsion_scanning/torsion_NH1-CT1-CG321-CG2R61/scans_PCY_conformer_18/PCY_conformer_18_forwards/orca_scan E -79.897380250290
  H          -0.77777061915855     -3.47009947275460      2.76502294161996
  H          -0.28850599450852     -0.88334656500831      4.72458753685592
  H           0.56308038090465     -0.07282512567617      2.16398153330232
  H           1.36365460423055      2.94264595841377     -1.29282985722582
  H           0.51320452819631     -2.26358105169768      3.00059760536740
  H           1.01088597392419      1.91090564069299      0.83134849561451
  H          -0.51634765271417     -2.21402805152315     -1.37024866706104
  H           1.36813500284116      1.96122409296233     -2.73165622739821
  H          -3.89939586163182      1.34149866463287      4.21622217576845
  H          -0.06075493445352     -0.19618091913595     -2.72367180547455
  H          -4.42368015955512     -0.00460792369397      2.19884486023850
  H          -1.14468423429138      4.39241571196016     -3.56215188725281
  H          -1.84442229065112      0.84880821015920      5.50339290546476
  N          -0.24282251309166      3.97005795316043     -3.31189763254071
  C          -0.42953266287359      2.98176331231136     -2.39108453428568
  C          -1.83210051093725      2.88682364171732     -2.01115253495378
  C           0.75246464301692      2.23671675934987     -1.86870223229508
  O          -2.67065248025027      3.57625154777827     -2.63367894380215
  C           0.48284029111714      1.01397169293140     -1.03897754982363
  C           0.66903400961800      1.01448680605716      0.33720442093494
  C           0.41222994620611     -0.11452930239339      1.09854139658284
  C          -0.03015087145627     -1.27745639635813      0.47997449505686
  C          -0.18538099659014     -1.29765375568325     -0.90740626639842
  C           0.07113060874951     -0.16856435695691     -1.65314018409046
  O          -0.33939138522183     -2.44471894784834      1.12019879358060
  C          -0.46122357420402     -2.44822171430517      2.53372771068458
  C          -1.47579187838340     -1.45820861681642      3.05012800568083
  C          -1.20355238973574     -0.70075036114282      4.18259744509293
  C          -2.07647066991292      0.28277644528524      4.61579959173927
  C          -3.23059370088818      0.55917279727329      3.89759143662522
  C          -3.52587740725306     -0.18089012176108      2.77061723963716
  C          -2.66951893753881     -1.20354544387148      2.36894879074417
  N          -3.08134449712689     -1.98948975023690      1.25135397670885
  O          -2.93966858871890     -3.20339110157940      1.29841142215848
  O          -3.61076705213896     -1.40603807334603      0.31059207564939
  C          -3.54903756430961      1.90812646031146     -0.56046515146499
  N          -2.18228717621448      2.09893000745557     -0.97786999434341
  H          -1.47347483482696      1.54586789020427     -0.52122195245349
  H          -4.19565470347074      2.43071881494905     -1.26279097352749
  H          -3.79002403809777      0.84441037031890     -0.55445272116655
  H          -3.69604493208295      2.31767071001340      0.43991626422338
  C           0.88189524758692      4.40510167060207     -3.95741537136245
  O           1.99877765920670      3.94612303136263     -3.75024227613376
  C           0.59989627326703      5.50968771414026     -4.93649197244873
  H           1.52712107008630      5.81057858127027     -5.41441114144131
  H          -0.10336972255447      5.16791624723276     -5.69168062007886
  H           0.16492459589161      6.36149631924279     -4.41996062230797
