47
Coordinates from ORCA-job /home/esp/scriptDevelopment/drFrankenstein/11_PCY_CHARMM/04_torsion_scanning/torsion_NH1-CT1-CG321-CG2R61/scans_PCY_conformer_18/PCY_conformer_18_forwards/orca_scan E -79.898117122300
  H           1.71551663802830     -3.12607017702730      0.47288785878750
  H          -0.53844504464579     -3.80758617031027      2.55026735977890
  H          -0.32854166627178     -0.69523889093041      2.46983260489572
  H          -2.44382436710055      3.21244101187689      1.35449135457994
  H           1.34070317280739     -2.58316570566256      2.12737537611917
  H          -1.67774966488964      1.32980170807874      2.48939501458119
  H           2.14505647151166      0.97557009341984     -0.58194024647895
  H          -1.10528952825058      4.37308540544173      1.37071377076911
  H          -4.19717698028489     -2.95732417072206      0.52057329075074
  H           0.80887658521271      3.04183783686952     -0.53278161407640
  H          -2.93242954737504     -1.63487554273218     -1.15244467145070
  H          -2.67669465283584      3.33134972371431     -2.26299692653860
  H          -2.96288443600273     -4.09581344834181      2.34303696775267
  N          -2.66006276937306      3.02558512636370     -1.28517113072023
  C          -1.77257589225929      3.76928654938789     -0.57134086002225
  C          -1.14303349371471      4.79819153226862     -1.37941100868481
  C          -1.51121872681070      3.49511646020425      0.86660721534953
  O          -1.47196329635770      4.92991603831811     -2.57793012711806
  C          -0.55272375320572      2.32428016859939      0.96772132943159
  C          -0.83201287018739      1.26944778511442      1.82325406181540
  C          -0.07426828790978      0.11352553655669      1.80420649840767
  C           0.97095184736556     -0.01083426440678      0.89546644241163
  C           1.31379311364622      1.08007683628101      0.09787035770366
  C           0.55620126922752      2.23083044664279      0.13301795080920
  O           1.69486412305559     -1.15229156732225      0.68775863873554
  C           1.14084237862204     -2.40367315524065      1.06309654584615
  C          -0.33372212319006     -2.59853286195910      0.80756017513776
  C          -1.06223679448115     -3.34805820590904      1.72634629958416
  C          -2.43267648622616     -3.50122385600866      1.61681030100479
  C          -3.12621024892448     -2.86896329556577      0.59476761458581
  C          -2.43067307073664     -2.12732351088588     -0.33492482149503
  C          -1.04224522839584     -2.01697468786220     -0.25155496047085
  N          -0.39966026451836     -1.31865152843461     -1.31151777732685
  O           0.71265681909242     -1.68203232404971     -1.67329186991373
  O          -1.01713579567857     -0.40887806814104     -1.86193284164189
  C           0.48782356319325      6.62438022677016     -1.51433270900631
  N          -0.21778524042083      5.59130737371871     -0.79774254709730
  H           0.05829252300708      5.41972124178929      0.15548815093728
  H           0.08127811394901      6.66832073351264     -2.52328728266577
  H           0.34720774663176      7.58667121886334     -1.02258385054714
  H           1.55345856224947      6.39659316753114     -1.56446621441459
  C          -3.36653881899635      1.89961639409139     -0.94945171916226
  O          -3.40628050497472      1.44033101974798      0.18246518875609
  C          -4.07730442391643      1.28932296162834     -2.12374234792182
  H          -4.54761984908013      2.04901726580249     -2.73991828892635
  H          -3.33696610254300      0.75867446880608     -2.72214838181275
  H          -4.82059299804191      0.58123310011282     -1.77009817103857
