47
Coordinates from ORCA-job /home/esp/scriptDevelopment/drFrankenstein/11_PCY_CHARMM/04_torsion_scanning/torsion_NH1-CT1-CG321-CG2R61/scans_PCY_conformer_18/PCY_conformer_18_forwards/orca_scan E -79.897762380640
  H           0.01851790119080     -3.45692227870779      1.50497937573409
  H          -1.68093931543331     -2.01780128596943      3.74382787871661
  H           0.02758613498640      0.20212224537053      2.37114056872734
  H           0.65678668415166      4.25413820076449     -0.14087421729938
  H           0.38912832711844     -2.29510349030995      2.80295004827081
  H          -0.15515264164537      2.48514932273465      1.55227261574725
  H           2.10485081231488     -0.91505819074227     -1.18722435798622
  H           1.18002179877097      3.66312884894111     -1.73593697387848
  H          -4.76016946399312      0.04583268824691      1.62143751395699
  H           1.96452562549100      1.41401640890236     -1.99716811101229
  H          -3.47444427249946     -0.23523364660390     -0.47416953613529
  H          -2.20124808184395      2.30968116359627     -2.39159746350978
  H          -3.87335752768637     -0.92090620469676      3.72619485609377
  N          -1.20668570114441      2.55458697449426     -2.40579201513344
  C          -0.88181000230845      3.33115215556062     -1.33712447903888
  C          -2.05714436248564      3.64595805691749     -0.53189613977551
  C           0.53263548724388      3.46804681464950     -0.88064403323217
  O          -3.17145455260759      3.19694518109757     -0.86774815564631
  C           0.85172581214746      2.10601769996044     -0.30149536330043
  C           0.34430534346042      1.74926330636548      0.94207966277144
  C           0.43732306925778      0.45200678076494      1.40604891624386
  C           1.02089462221116     -0.52584736881548      0.60496794418390
  C           1.62027466487462     -0.15239743122531     -0.59754116770806
  C           1.53270240206879      1.14880763135576     -1.04459136879830
  O           1.03496913390842     -1.86157699755319      0.89409854135006
  C           0.04574797388057     -2.39313126871810      1.76523318579500
  C          -1.33777275922148     -1.80243601255371      1.65206036377846
  C          -2.08537565627961     -1.64654277002185      2.81492093012446
  C          -3.31703533158476     -1.01589365855196      2.80778184008253
  C          -3.81947153647695     -0.47903897067758      1.63100510066578
  C          -3.10619310953743     -0.62716284172039      0.46099273578471
  C          -1.89154535534178     -1.31422961613094      0.46120900193519
  N          -1.27624123983707     -1.51704387001669     -0.80476520076447
  O          -0.64743628885197     -2.55102995678186     -1.00087062307035
  O          -1.45329786549405     -0.66656571624543     -1.67669981579110
  C          -2.99220284762478      4.80590618209146      1.41357335854372
  N          -1.89722536276931      4.42778550470812      0.55442596105981
  H          -0.99484254888821      4.82871531433481      0.75204023294004
  H          -3.89270266168579      4.32392356287700      1.03778449662173
  H          -2.80057047962425      4.47531490969673      2.43447186755271
  H          -3.13046951140448      5.88717627430731      1.40428659493632
  C          -0.46712896866641      2.15268190470139     -3.48582029137945
  O           0.68494930916638      2.51694487713859     -3.68090590083185
  C          -1.22369190514717      1.22823067617531     -4.39225991193853
  H          -0.60710292218691      0.97003580369956     -5.24738046943560
  H          -1.46848413275368      0.32671523718457     -3.83219067273772
  H          -2.14676869721978      1.69165784940532     -4.72908732321297
