47
Coordinates from ORCA-job /home/esp/scriptDevelopment/drFrankenstein/11_PCY_CHARMM/04_torsion_scanning/torsion_NH1-CT1-CG321-CG2R61/scans_PCY_conformer_18/PCY_conformer_18_forwards/orca_scan E -79.898446717570
  H          -0.79299860896277     -3.54404224239345      2.60558999495930
  H          -0.27080822361175     -1.10776880114386      4.73228526466959
  H           0.54123184720806     -0.11379491937314      2.21537543546302
  H           1.15641137796206      3.18759715570051     -0.99038580557944
  H           0.50865665570872     -2.36355435017182      2.90628762803698
  H           0.99265952574324      1.94641908969785      1.00830851160724
  H          -0.53359903405402     -2.03410292785191     -1.44504221884134
  H           1.52692960764041      2.25380671293067     -2.41832864534383
  H          -3.85722690715744      1.18917732908884      4.40151478909421
  H          -0.06960523753141      0.06223786344634     -2.67201722240353
  H          -4.40790039986401     -0.00718222384406      2.29829420030910
  H          -1.13380640368376      4.25504652466587     -3.74825180219646
  H          -1.80286904217518      0.58238623497671      5.64024293557409
  N          -0.22836220490460      3.91609822389055     -3.40301973972461
  C          -0.41992450993630      3.03286024639197     -2.38280059659503
  C          -1.83439029669125      2.90710337296549     -2.05849932777272
  C           0.74538202365857      2.43376711837349     -1.67333317809586
  O          -2.67593842614817      3.44880003748235     -2.80879151211007
  C           0.47150105119585      1.16513753738720     -0.91539854741201
  C           0.65203377886315      1.08247586681196      0.45830069724995
  C           0.39350477881801     -0.09105197789372      1.14888987844125
  C          -0.04850749352071     -1.21329479383613      0.45996922308826
  C          -0.20115732736244     -1.14851540854551     -0.92657757764475
  C           0.05932627547373      0.02291554382004     -1.60126671368424
  O          -0.36193924862630     -2.41709702281042      1.02681964077974
  C          -0.47148079933370     -2.51136500801431      2.43804291360777
  C          -1.47352140360924     -1.55069274329481      3.02898473539594
  C          -1.18675838526643     -0.87767505773626      4.21026033811404
  C          -2.04594700838371      0.08276970326631      4.71645730345088
  C          -3.19996506449438      0.42265597888526      4.02567600789514
  C          -3.50984009286244     -0.23363108083330      2.85177955387629
  C          -2.66823699372839     -1.23632550378396      2.37513999174744
  N          -3.09710748609289     -1.93954640796298      1.20997486378138
  O          -2.96493009149613     -3.15457789466679      1.17097700014082
  O          -3.63098401321581     -1.28821287811642      0.31765300891288
  C          -3.56146196367136      2.02142751541654     -0.56084870319929
  N          -2.18874604769588      2.26211515959538     -0.93116842288869
  H          -1.47363064023659      1.80694265251202     -0.38415938715777
  H          -4.20042866806255      2.46485274527625     -1.32207377216668
  H          -3.75229134508849      0.94856079731138     -0.50055321437669
  H          -3.77284372378832      2.48159623491089      0.40459217420239
  C           0.90519051222950      4.31938032377349     -4.05446187970880
  O           2.02993323473358      3.93672137505602     -3.75345473770402
  C           0.62346525225653      5.28872670467603     -5.16746594853209
  H           1.55858961290241      5.57334173911495     -5.64001673931491
  H          -0.03096877071257      4.83114003597366     -5.90507326777722
  H           0.13234032757518      6.17439141887478     -4.77242713016766
