47
Coordinates from ORCA-job /home/esp/scriptDevelopment/drFrankenstein/11_PCY_CHARMM/04_torsion_scanning/torsion_NH1-CT1-CG321-CG2R61/scans_PCY_conformer_18/PCY_conformer_18_forwards/orca_scan E -79.898814318870
  H          -0.22088897419353     -3.36836379886915      1.46236166696967
  H          -1.70835761786145     -1.74962089063537      3.78168745509397
  H           0.23445921820549      0.25353987650462      2.46668760680981
  H           0.55190222964565      4.24251106339096     -0.19515872900055
  H           0.27051661031612     -2.30958600087174      2.80778727284929
  H           0.07331379252490      2.53718421513883      1.64877265427610
  H           1.95540080816464     -0.97144317483071     -1.24032741685690
  H           1.13323885327567      3.64453095225640     -1.76854224396383
  H          -4.55375312071602      0.67910639979227      1.71982936220301
  H           1.82923861893022      1.35321833372998     -2.06159921854850
  H          -3.36628767201405      0.24291431253920     -0.39872143599104
  H          -2.12753496529842      2.15571113601569     -2.53816511348704
  H          -3.74897380224277     -0.39097592099721      3.80971419558450
  N          -1.16296013567677      2.50242503943791     -2.53012488141341
  C          -0.90232370953667      3.16835962135112     -1.37595999643591
  C          -2.09419761959167      3.26588335926279     -0.53894047027249
  C           0.49335054510961      3.42941285527256     -0.91427916935136
  O          -3.15831459701306      2.73972841415476     -0.92078767824044
  C           0.86771323805166      2.09907838684405     -0.29682066930939
  C           0.47547769883538      1.77814366855561      0.99767863837185
  C           0.56176639299725      0.48239795461339      1.46553157244845
  C           1.02121063643108     -0.52770836462778      0.62372628860834
  C           1.54736062608650     -0.18706987052777     -0.62172431547381
  C           1.46417654040699      1.11146359547322     -1.07545643263307
  O           0.96410880513437     -1.86169268399844      0.91865075184635
  C          -0.08038814205712     -2.32592151480020      1.76836537377025
  C          -1.38939251521107     -1.58088605935081      1.68241973307711
  C          -2.08557456265336     -1.33332517021146      2.86040556998442
  C          -3.23009956223836     -0.55501336888298      2.87918690312406
  C          -3.68707431762450      0.03926350461967      1.71222314693920
  C          -3.02814732892444     -0.20009193184963      0.52530121788036
  C          -1.90748840733856     -1.03147835689480      0.50032219078672
  N          -1.35105499413329     -1.31441072875897     -0.77646191465636
  O          -0.81909890038880     -2.40462795065236     -0.96480641793442
  O          -1.47781941707846     -0.47360127875543     -1.66718516785700
  C          -3.11440174189412      4.07256973570840      1.53631630757410
  N          -2.00642032651161      3.94075900628365      0.62300389854491
  H          -1.14396013896835      4.39774342288645      0.86962269560291
  H          -3.98300290685253      3.60642598063716      1.07553402235044
  H          -2.89056617525405      3.56997750103974      2.47812155460955
  H          -3.32450969793517      5.12430217938019      1.72739408132776
  C          -0.38288464479986      2.21178282060344     -3.61631992098938
  O           0.75178332730113      2.64659206608530     -3.76762475236286
  C          -1.07706039584465      1.30859287366280     -4.59243765544457
  H          -0.41801116445673      1.09722292870724     -5.42856224396388
  H          -1.33377569975683      0.38201664598761     -4.08091516020270
  H          -1.99171468735033      1.77097921557974     -4.95372315624422
