47
Coordinates from ORCA-job /home/esp/scriptDevelopment/drFrankenstein/11_PCY_CHARMM/04_torsion_scanning/torsion_NH1-CT1-CG321-CG2R61/scans_PCY_conformer_18/PCY_conformer_18_forwards/orca_scan E -79.900308762740
  H          -0.39265369919322     -2.82561282932843      3.29444294672955
  H           0.23526263732194      0.03761878543742      4.56358229137191
  H           0.59472607194765      0.33711933298603      1.61753860003340
  H           1.15674311538706      1.78877606027286     -3.02848138173427
  H           0.88587523078203     -1.60884061446846      3.04507733775659
  H           0.70593393501961      1.87312794015367     -0.26738400959561
  H          -0.54706824138429     -2.82058701751520     -1.02115907679153
  H          -0.19170257654494      0.93109633108978     -3.78626831668368
  H          -3.36525735007810      2.24488099504136      3.92319367344063
  H          -0.41844259462470     -1.26665789876204     -2.93213170133463
  H          -4.07559484856503      0.56199735271464      2.24666264851919
  H          -1.06329500085681      4.49563204809123     -2.24770578161448
  H          -1.22067224481114      1.93312810830122      5.12036604961539
  N          -0.28935682104209      3.86856141676761     -2.49574145564081
  C          -0.73729302642673      2.58639910176618     -2.56508851254281
  C          -2.15303964940084      2.48424226298245     -2.25002335155190
  C           0.14105139530871      1.42302795693163     -2.86821696643951
  O          -2.79401048794310      3.51554411827476     -1.95442807855582
  C           0.12456072207400      0.42862448954807     -1.73010559914861
  C           0.42179455018473      0.84628581518418     -0.44095409832213
  C           0.35981326707483     -0.02598351809382      0.63063754822163
  C          -0.01167805620195     -1.34934486715032      0.42104713690502
  C          -0.27481946952182     -1.78697985365876     -0.87653473296672
  C          -0.20874520347782     -0.90632406690412     -1.93575376386707
  O          -0.15635665848330     -2.29467999389888      1.39764237932404
  C          -0.13079170717469     -1.90649580931027      2.75995758692161
  C          -1.09578621694972     -0.80655895241722      3.12853327264488
  C          -0.71928790270104      0.14343398048503      4.07169413227306
  C          -1.53523167079808      1.21866484874640      4.37690810942061
  C          -2.73951403550083      1.39403060419417      3.71052530273381
  C          -3.13818391324076      0.46511290301996      2.77189705672374
  C          -2.33775370114070     -0.64496519411969      2.50790082973259
  N          -2.86367171908692     -1.61192063483704      1.60040322268729
  O          -2.72819382624726     -2.79829112476066      1.85784464571119
  O          -3.47714170153598     -1.19880155794968      0.62264799297018
  C          -4.09539510175599      1.02255652536208     -1.93514653625647
  N          -2.72961401202804      1.26830250571984     -2.32864968129493
  H          -2.14825338455380      0.45819785207791     -2.47465582739808
  H          -4.65903627551660      0.61130154070947     -2.77265092450979
  H          -4.12557267777843      0.31614825132695     -1.10405263642834
  H          -4.53519572423254      1.97129761439454     -1.63355354892702
  C           0.95271517019844      4.41652225031670     -2.67353811474250
  O           1.94767319063526      3.76025610898670     -2.96018089289502
  C           0.96419661957588      5.90614748560795     -2.47831249265187
  H           1.97137482099527      6.28002127212251     -2.63505639168924
  H           0.28766374395458      6.37898889003061     -3.18572671614137
  H           0.63820502833726      6.15301918453068     -1.47100217401213
