47
Coordinates from ORCA-job /home/esp/scriptDevelopment/drFrankenstein/11_PCY_CHARMM/04_torsion_scanning/torsion_NH1-CT1-CG321-CG2R61/scans_PCY_conformer_18/PCY_conformer_18_forwards/orca_scan E -79.898548674510
  H          -0.48660651052043     -3.08851206007188      3.17134111656938
  H          -0.00333414404509     -0.29750261648019      4.68721071921776
  H           0.33854794164243      0.26174846791473      1.81880641953173
  H           1.42612587468569      2.03433739347171     -2.58316047777478
  H           0.73759476212825     -1.79773810638062      3.04787742073831
  H           0.59442799060112      1.93177938232631      0.06774977160864
  H          -0.37919251172342     -2.73187817821544     -1.14138554613623
  H           0.26726192804358      1.19557426183393     -3.59376534876545
  H          -3.71577678979902      1.75553623792778      4.18660220437799
  H          -0.09855753613391     -1.04000355001593     -2.91642951467447
  H          -4.32659034351205      0.17255565738203      2.37861517603046
  H          -0.97277097878718      4.68989991888824     -2.71589308665054
  H          -1.56397402643054      1.46850326836512      5.37516663932296
  N          -0.18732782699224      4.04630881568619     -2.86614589282963
  C          -0.52757746733539      2.79300055072276     -2.45496159199151
  C          -1.91423217764099      2.73861876318443     -2.01448421507993
  C           0.40551802815362      1.64172115703777     -2.60150692497184
  O          -2.55637565649473      3.80439341600985     -1.89259199068980
  C           0.24571157593569      0.57869116564420     -1.54824019608371
  C           0.37755642234943      0.91065453608373     -0.20635302365177
  C           0.23008440424102     -0.03752699031921      0.78966278346633
  C          -0.05823358277044     -1.35431731324903      0.44918253993145
  C          -0.16505721496441     -1.70350510178554     -0.89696696008674
  C          -0.01155432455929     -0.74853061838045     -1.88043857801460
  O          -0.26274521173800     -2.37548064036126      1.33383960816429
  C          -0.26229261748827     -2.11361578539083      2.72622964683386
  C          -1.28091678688809     -1.09686843111497      3.17933434230683
  C          -0.96008425006440     -0.20525694406497      4.19680049900325
  C          -1.83532279845151      0.79744873604204      4.57631211851251
  C          -3.04393117969666      0.95856701574507      3.91428478894838
  C          -3.38761371531974      0.08534956202747      2.90280092219395
  C          -2.52648391448591     -0.95592865907772      2.56254005059648
  N          -2.98823498678966     -1.87779917690761      1.57626261922961
  O          -2.81761532755643     -3.07386053969259      1.75997024475278
  O          -3.58564958524470     -1.41959463613935      0.60805336171779
  C          -3.84136983886507      1.37880207624213     -1.35714005843898
  N          -2.47263679233025      1.53578256137889     -1.78334693324895
  H          -1.92827530890117      0.69799111962623     -1.91640563260142
  H          -4.48590421998545      1.13712643937616     -2.20495762400217
  H          -3.90196105200749      0.57333882787375     -0.62751643223041
  H          -4.17510542802138      2.31861456129241     -0.92064321985908
  C           0.98779606979001      4.56320944056643     -3.33942007289975
  O           1.99936080891963      3.89331606598755     -3.51558103324957
  C           0.90212513316029      6.03560687575004     -3.62640778288951
  H           1.85520166626184      6.38066917123666     -4.01541512730800
  H           0.12074738842828      6.22679881132507     -4.35751596565189
  H           0.66422411120246      6.57999509069887     -2.71596976327400
