47
Coordinates from ORCA-job /home/esp/scriptDevelopment/drFrankenstein/11_PCY_CHARMM/04_torsion_scanning/torsion_NH1-CT1-CG321-CG2R61/scans_PCY_conformer_18/PCY_conformer_18_forwards/orca_scan E -79.897153196590
  H           0.43825369223485     -3.48530016400432      1.74071007159149
  H          -1.65764395427312     -2.30104707521716      3.71058926286341
  H          -0.40567842212362      0.11894413317266      2.15617202030869
  H           0.78365302658442      4.28725711946558     -0.06035450702000
  H           0.48387895099830     -2.10494706825877      2.86565025208031
  H          -0.60513525300631      2.40063181698247      1.33931094719478
  H           2.36160059404962     -0.75945825834677     -0.97645422619090
  H           1.19373663093215      3.69475924479968     -1.68331384505240
  H          -5.01570886742966     -1.26909915993782      1.28227158531065
  H           2.18114276597478      1.56781200551309     -1.78505221965716
  H          -3.56633542542125     -1.37689878550184     -0.72650264159511
  H          -2.39064241510220      2.80670015389241     -2.21787252104553
  H          -4.04834323592772     -1.79565265125637      3.50138338971386
  N          -1.36656520308131      2.80972524245905     -2.21906140939054
  C          -0.88160916589784      3.63851309928626     -1.25089197171630
  C          -1.94698236536777      4.35325743800521     -0.56753886606735
  C           0.54135190859777      3.54728535912917     -0.81987074715921
  O          -3.13145824262161      4.18165947357957     -0.92696676992404
  C           0.76497149852844      2.14709500613563     -0.28542974120684
  C           0.05612955507827      1.71734405428091      0.82815183127057
  C           0.16109013657080      0.41781019441546      1.28942309536939
  C           0.97664987230670     -0.48558472610453      0.61662188992857
  C           1.72469267751291     -0.04704784162659     -0.47582119132276
  C           1.61981497703176      1.25417863156068     -0.91886165641160
  O           1.11254089614924     -1.80989818171687      0.92512699706718
  C           0.22366137063526     -2.41624307238435      1.84559616781544
  C          -1.24890016817634     -2.17316002181898      1.62291769532878
  C          -2.08270187275418     -2.11693113421648      2.73614830192656
  C          -3.42861322423370     -1.82009870349487      2.61972605960477
  C          -3.97444465465973     -1.52858345008924      1.37748855689346
  C          -3.17282110027354     -1.57968138451173      0.25722040903165
  C          -1.82748300684426     -1.93134519390520      0.37262986449855
  N          -1.10095973293245     -2.05925143207732     -0.84616415596969
  O          -0.28083021661688     -2.95961802282806     -0.95613051954037
  O          -1.37618456958566     -1.28317147796246     -1.75840491115709
  C          -2.59967403657116      5.96505522882369      1.16053193780054
  N          -1.62049420731291      5.18958634686354      0.43997511902234
  H          -0.65226649227806      5.34270366765800      0.66967191829076
  H          -3.58484686983760      5.68393978914149      0.79261965058223
  H          -2.53399200457896      5.75384666629545      2.22772166640686
  H          -2.44341661144595      7.03132572637728      0.99350155387281
  C          -0.71284435150234      2.15351181537780     -3.22986370294048
  O           0.48053113382054      2.30198026284460     -3.45266711954962
  C          -1.60021061954702      1.23369829893959     -4.01410978919017
  H          -1.12963465229468      0.99883718649746     -4.96387516369845
  H          -1.70531681082271      0.30946729979711     -3.44460026302224
  H          -2.58298193448524      1.66411254396583     -4.17535230494583
