47
Coordinates from ORCA-job /home/esp/scriptDevelopment/drFrankenstein/11_PCY_CHARMM/04_torsion_scanning/torsion_NH1-CT1-CG321-CG2R61/scans_PCY_conformer_18/PCY_conformer_18_forwards/orca_scan E -79.888989442040
  H           0.91902231952230     -3.63932150420617      1.24495071544408
  H          -1.60944120929367     -2.91052783957064      3.09095264623640
  H          -0.82397752086640     -0.43427315495453      1.88879357558228
  H          -0.09026010191359      4.21044058645034      1.11914853649375
  H           0.53502345093193     -2.42574658019120      2.49552635096905
  H          -1.23792507243591      1.94428412631870      1.61006433952904
  H           2.67302384738278     -0.10777231739324     -0.53893912515997
  H           0.99444186938080      4.24880846730205     -0.28114947612598
  H          -4.82281249220657     -2.69907131123601      0.28619911539954
  H           2.26279900060557      2.30980125467696     -0.80311523342598
  H          -3.17210208016582     -2.54177461579279     -1.55613647627504
  H          -2.84553749142216      3.36980414159981     -1.33549510895280
  H          -4.01445246481641     -2.93876276013320      2.61679004791550
  N          -1.91919766786771      2.97733635129121     -1.13533896731038
  C          -1.06929369066414      3.97029693622633     -0.72661017209360
  C          -1.65375638359986      5.28912090992141     -0.90110916805528
  C           0.12393985375315      3.74459691303001      0.15056294822209
  O          -2.77288443610269      5.40499202161799     -1.44605165345801
  C           0.46528549869178      2.29693424912784      0.36660275685510
  C          -0.37238015627736      1.50430400459291      1.13688694285147
  C          -0.14099857112090      0.14946179458916      1.29418198348783
  C           0.94768608372499     -0.43647628417077      0.66212848620921
  C           1.82583591581688      0.36467871900056     -0.06725180063826
  C           1.58753452359447      1.71415608086382     -0.20835430479371
  O           1.24866583353781     -1.77062449141924      0.67648852390719
  C           0.45053249319605     -2.66643242691286      1.42808534327098
  C          -1.00995976021957     -2.73411997443004      1.05286291544371
  C          -1.95405553816174     -2.84089009865463      2.07061521429956
  C          -3.31155170608604     -2.84712219488145      1.80458874882910
  C          -3.76711288885489     -2.71572895213665      0.50036736860776
  C          -2.85436077795515     -2.61840664661620     -0.52795799962821
  C          -1.48494307417608     -2.65235728868349     -0.26047836810893
  N          -0.61853568117801     -2.64579617142070     -1.39310078295178
  O           0.43638698580272     -3.25893287580609     -1.33730170501810
  O          -1.00648040170676     -2.06597420943740     -2.40082317760357
  C          -1.41224413189805      7.71479416247969     -0.63296057961520
  N          -0.95515200662126      6.35770720587579     -0.45952471093234
  H          -0.03223422322054      6.22677438817300     -0.08022032551967
  H          -2.41558975158259      7.67777086063317     -1.05361610418211
  H          -1.43810941103724      8.22736551925999      0.32822194030020
  H          -0.75708734268850      8.25906314002133     -1.31453684385502
  C          -1.63815551227327      1.76221117581819     -1.72354831498858
  O          -0.50951038897794      1.41739788627433     -2.02866337980093
  C          -2.86220601371627      0.92307997635442     -1.95505695313462
  H          -3.53285191084619      1.41994251586929     -2.65115086744369
  H          -2.55060421901019     -0.03044523576813     -2.37345787045655
  H          -3.38543359697763      0.76345354644706     -1.01606903032551
