47
Coordinates from ORCA-job /home/esp/scriptDevelopment/drFrankenstein/11_PCY_CHARMM/04_torsion_scanning/torsion_NH1-CT1-CG321-CG2R61/scans_PCY_conformer_18/PCY_conformer_18_forwards/orca_scan E -79.896731852280
  H           1.27536660805515     -3.63572465454383      0.68467126232340
  H          -1.05581589828878     -3.22595263917638      2.99555955046823
  H          -0.04322035705821     -0.67878827180864      2.50814184342497
  H          -1.43684220913280      3.61077646633927      1.54511306518152
  H           1.06748625444904     -2.70947851705377      2.19348938104618
  H          -0.96158497471471      1.57015286597295      2.57580144821316
  H           1.81123466061912      0.17876874723370     -1.24134660304029
  H           0.08180802326997      4.28087801579782      0.92362266270540
  H          -4.53893021285699     -2.46961869066506      0.64308363327232
  H           0.89521201183755      2.46971090492619     -1.16068684954148
  H          -3.09473750628664     -2.09441229313748     -1.33820392164469
  H          -2.15086953389726      3.40998467482661     -2.29806600267595
  H          -3.49766383658211     -3.09288363375097      2.79989677485755
  N          -1.97915110743880      2.99798390831420     -1.37503992725551
  C          -1.38671019539466      3.91716180843750     -0.55976463979796
  C          -1.31814172382679      5.22533185428208     -1.19098976432023
  C          -0.71501713598164      3.56206827817841      0.72223623175032
  O          -1.73300521241311      5.36837071299443     -2.36166733794448
  C          -0.11996398993720      2.17627820321503      0.70557496487017
  C          -0.34801189523323      1.28030043038099      1.73747609176588
  C           0.16670731183596     -0.00213148077936      1.69680655994752
  C           0.92801128080699     -0.40704130727696      0.60751325307284
  C           1.20571028189773      0.50413219641376     -0.40902050813874
  C           0.68734424947741      1.78035143638930     -0.35544388631529
  O           1.44397675905789     -1.66818051060897      0.44019889665120
  C           0.81996990621375     -2.74379314916278      1.12598335638447
  C          -0.67822197998998     -2.77053257152481      0.94862408213956
  C          -1.50474912161997     -2.99376365091070      2.04206799483939
  C          -2.88241598014787     -2.90964399075412      1.93380072805326
  C          -3.46897119708887     -2.56365277694969      0.72581905063790
  C          -2.67198431427726     -2.34356095729556     -0.37778788861024
  C          -1.28852251113595     -2.47342829216222     -0.27513803291747
  N          -0.53732275808951     -2.31630692511938     -1.47474151503714
  O           0.44110243024688     -3.02484084705700     -1.66278780915984
  O          -0.93896933861274     -1.50066323599460     -2.29881497845709
  C          -0.73422814461078      7.59824813880643     -0.99906435335700
  N          -0.81466181502571      6.25543447132316     -0.47856114198615
  H          -0.57429830035041      6.12314127798535      0.49009676148611
  H          -1.05645815008944      7.57400488321167     -2.03857296831275
  H          -1.38462922315073      8.26856312621692     -0.43612599655974
  H           0.29208712724314      7.96089143850342     -0.94450284560820
  C          -2.55300222812870      1.78464791949328     -1.09306686934965
  O          -2.63917514237223      1.33912292877515      0.04180051874648
  C          -3.05997481551084      1.06330444838165     -2.30804353919347
  H          -3.26376563476368      1.73929273865088     -3.13096517756396
  H          -2.29942071297820      0.34486657945953     -2.61674044013484
  H          -3.95659974802461      0.50864994122258     -2.04623511491570
