47
Coordinates from ORCA-job /home/esp/scriptDevelopment/drFrankenstein/11_PCY_CHARMM/04_torsion_scanning/torsion_NH1-CT1-CG321-CG2R61/scans_PCY_conformer_18/PCY_conformer_18_forwards/orca_scan E -79.897320583720
  H          -0.55916251589035     -3.19336022486355      3.09263503515899
  H          -0.03909723261582     -0.48136101627066      4.73622961393711
  H           0.29287593864838      0.20889488277225      1.89888012683742
  H           1.50975809284365      2.21177957525044     -2.29890724672790
  H           0.68040942973747     -1.91295320917773      3.02662083905017
  H           0.62677604108105      1.94294803036107      0.22522393623622
  H          -0.38439653405494     -2.65124895611155     -1.19955308068159
  H           0.55792895496436      1.33133777857250     -3.46765822355739
  H          -3.73305150841756      1.62852251885270      4.34773171805806
  H          -0.02401159631091     -0.89444848608328     -2.89631718428733
  H          -4.36496278162242      0.13948212486070      2.46820196140659
  H          -1.00024844383492      4.69327922564905     -2.92630224917835
  H          -1.58011957722560      1.26512769586134      5.51290824055717
  N          -0.18589238752235      4.07164720532244     -2.99302440616654
  C          -0.47949793314030      2.85861604370065     -2.44451725991289
  C          -1.87341156773890      2.79850580523868     -2.02822325157101
  C           0.52611004046030      1.75904103195977     -2.45783101161961
  O          -2.55236263884965      3.84889957309067     -2.03554133810285
  C           0.30558454468248      0.66199219566241     -1.45425857792794
  C           0.40195726491429      0.93771803131996     -0.09644898294377
  C           0.20991162658953     -0.04696307668869      0.85581059057958
  C          -0.08771317038697     -1.34435132550083      0.45417326711135
  C          -0.16236376544766     -1.63704370229956     -0.90774478600227
  C           0.03653470089863     -0.64662501987720     -1.84724583021898
  O          -0.33000606686370     -2.39747860394395      1.28998707823886
  C          -0.32382661268580     -2.20145533395981      2.69321103831054
  C          -1.32951726664769     -1.19566247619382      3.19680891491508
  C          -0.99642130757706     -0.35653946858234      4.25424577070687
  C          -1.86053283276543      0.63543907501780      4.68407306238406
  C          -3.06977220964778      0.83923644353692      4.03501962758070
  C          -3.42522732691598      0.01862010418395      2.98428635060021
  C          -2.57533897739735     -1.01345610144386      2.59178039958187
  N          -3.04791658028396     -1.88230394617028      1.56360592271266
  O          -2.89322283293705     -3.08807374359407      1.69148520666476
  O          -3.63836028596834     -1.37150461705898      0.61724477542327
  C          -3.78497901785911      1.46406303423956     -1.29130519784615
  N          -2.40130928849846      1.61277799428812     -1.67090082294786
  H          -1.84393780620601      0.77575617819995     -1.74059331034574
  H          -4.40369682280727      1.22097199475199     -2.15830644478917
  H          -3.87056026838931      0.66229061393905     -0.56127721155721
  H          -4.13240421845400      2.40657394081623     -0.87146417112867
  C           0.97577541202666      4.57976618327797     -3.50636737727744
  O           2.01485914291883      3.93561183539752     -3.59374994231521
  C           0.83728771443578      6.00665025906884     -3.95699433459146
  H           1.78209260789217      6.34516716608574     -4.37101104392276
  H           0.06056426454213      6.08423879310154     -4.71341844023182
  H           0.56387559832694      6.63789397344027     -3.11520175019963
