47
Coordinates from ORCA-job /home/esp/scriptDevelopment/drFrankenstein/11_PCY_CHARMM/04_torsion_scanning/torsion_NH1-CT1-CG321-CG2R61/scans_PCY_conformer_18/PCY_conformer_18_forwards/orca_scan E -79.895150451360
  H           0.65321848165206     -3.48914572467625      1.78812534402734
  H          -1.89946184358611     -2.29010212013499      3.33580001282394
  H          -0.69538295764641     -0.04189580811002      1.99377594953708
  H           0.74531012460919      4.32446569371759      0.12478485401234
  H           0.33770543460021     -2.08238550647955      2.83794273378508
  H          -0.96763207339510      2.25386112768782      1.24396942572701
  H           2.64252602058377     -0.50233153187942     -0.62987646562832
  H           1.03202770128823      3.75830406225496     -1.53206447398282
  H          -4.87295328704798     -2.04268471938574      0.28049783977788
  H           2.37012779083059      1.83144219983175     -1.38082819544633
  H          -3.09758241012797     -2.28391573440125     -1.43482541828938
  H          -2.74859052699406      3.04755590756287     -1.52416022967507
  H          -4.25503547552406     -2.10484861047282      2.67824844515234
  N          -1.74627442273031      2.84309275094670     -1.57964774175520
  C          -1.01600269343699      3.81651534325097     -0.96251287577297
  C          -1.84536294751737      4.92375203871630     -0.52158608612153
  C           0.42255430192208      3.61150843180987     -0.63450247043813
  O          -3.08247522289734      4.87271128679476     -0.69288122843818
  C           0.66702889785493      2.20584985600773     -0.13393060060109
  C          -0.16932376458346      1.65749204286468      0.82679274064891
  C          -0.01859903302299      0.34929924153401      1.25240149300836
  C           0.98563212781965     -0.43871317745178      0.70457792470816
  C           1.86176363467908      0.12210941819803     -0.22456994475703
  C           1.70285603193081      1.42744890551089     -0.63596137544490
  O           1.20222467168745     -1.75873371222797      0.99120987928083
  C           0.28177800938320     -2.45927495242814      1.80896882185425
  C          -1.15339472026798     -2.42514262479298      1.34381626406320
  C          -2.16604380412053     -2.30353020414876      2.29017691234163
  C          -3.49402101670499     -2.18840123089709      1.91932661202749
  C          -3.84331599891591     -2.15610954688100      0.57672062264827
  C          -2.86072105926147     -2.28185737449350     -0.38227733857721
  C          -1.52792420497174     -2.44511995705214     -0.00371806948315
  N          -0.59199446396076     -2.67109019362475     -1.05486188364920
  O           0.34260045907638     -3.43542683886257     -0.86330700388160
  O          -0.80355482150360     -2.12362209113868     -2.13243726119423
  C          -1.97585132250869      7.15069468020718      0.49315698585517
  N          -1.24594139171512      5.98399142903535      0.06159703987794
  H          -0.24094552113724      6.03160044646163      0.09817182849901
  H          -3.03723629209504      6.94880080438323      0.36002560979438
  H          -1.77137959199321      7.35241658983665      1.54435242085884
  H          -1.69817632353793      8.02142958242023     -0.10206541525112
  C          -1.32755496288756      1.80820009223987     -2.37779034100566
  O          -0.16801243953129      1.68923739448110     -2.74400528055729
  C          -2.42900115542314      0.86449892240308     -2.76596641640594
  H          -2.89949959094590      1.21494146126762     -3.68230731757858
  H          -1.99176302633903     -0.11276514514421     -2.95901773751526
  H          -3.17736532158629      0.79389709525872     -1.98333858885933
