47
Coordinates from ORCA-job /home/esp/scriptDevelopment/drFrankenstein/11_PCY_CHARMM/04_torsion_scanning/torsion_NH1-CT1-CG321-CG2R61/scans_PCY_conformer_18/PCY_conformer_18_forwards/orca_scan E -79.897400143460
  H          -0.41173021738670     -3.57944717362292      1.84143078084753
  H          -0.49541999964082     -2.15508374017285      4.54607145003450
  H           0.25972680735039      0.05668031680382      2.30391308281197
  H           0.28414601682434      3.95922785861744     -0.17504299501480
  H           0.71048041127990     -2.41452762168479      2.58533490162056
  H           0.37355747997416      2.35040477971018      1.52266121762456
  H           0.43629713425057     -1.32922660318243     -1.73150005721780
  H           1.40193020434798      3.53009790788831     -1.48339161181508
  H          -4.06853027668462      0.18383557327155      4.53081399509622
  H           0.61282063042233      0.99939150948059     -2.52100789422458
  H          -4.15282086958362     -0.00540974172291      2.05989792887623
  H          -1.30845071312777      3.34821138257755     -3.88463114298840
  H          -2.24734399329915     -0.95220222693017      5.76882269978860
  N          -0.41635040236454      3.32229871875131     -3.38001618076919
  C          -0.62643165535036      3.48081154417720     -2.04437173960285
  C          -2.04469097761168      3.50403411627455     -1.72353004129651
  C           0.43965977288898      3.29261190713710     -1.02243156340530
  O          -2.88556361572974      3.61857988311547     -2.63870238314636
  C           0.46332381634419      1.85063003274590     -0.55814303367921
  C           0.38040342735713      1.55324285007681      0.79422450282208
  C           0.31477746850693      0.24550196569319      1.24409444748826
  C           0.29879052670332     -0.79611430942676      0.32485119578485
  C           0.42943350191330     -0.50617089666950     -1.03442077672925
  C           0.51337265229976      0.79884436394543     -1.46598180040234
  O           0.14698711107900     -2.11852230912611      0.62722016281229
  C          -0.17729819960311     -2.51453684037194      1.94708129127080
  C          -1.33416830276460     -1.81345659815254      2.61669808898480
  C          -1.30971192427341     -1.69937731136132      4.00455800143168
  C          -2.29149140363056     -1.01091162418317      4.69339050071096
  C          -3.31448407977833     -0.37593855242042      4.00303391921254
  C          -3.36391678311895     -0.47237617369143      2.62880972672682
  C          -2.40057076277076     -1.21173951565560      1.94194297753381
  N          -2.58523751387550     -1.33072902322068      0.53255741229161
  O          -2.36219941778787     -2.40558733181759     -0.00361522714966
  O          -3.01361371759479     -0.34999686547834     -0.06781608030453
  C          -3.76232848098087      3.19837076813956     -0.01984870572622
  N          -2.39358948685035      3.42630074815266     -0.41873483439407
  H          -1.68903731933775      3.12612104096971      0.23705913575492
  H          -4.41260303483396      3.60019772633534     -0.79439194966246
  H          -3.95759616135441      2.12727474830405      0.08122179447531
  H          -3.95157257632057      3.70164165976296      0.92516948032741
  C           0.73816002554826      3.27065373472096     -4.11534148526055
  O           1.85721575546685      3.31947779705789     -3.61879885977297
  C           0.48384022204545      3.13474595184704     -5.59025798098542
  H           1.43282050616279      3.05221627547382     -6.11135888421396
  H          -0.11843100995470      2.25117255427825     -5.78656096481747
  H          -0.05358057515610      4.00679674358278     -5.95496250174935
