47
Coordinates from ORCA-job /home/esp/scriptDevelopment/drFrankenstein/11_PCY_CHARMM/04_torsion_scanning/torsion_NH1-CT1-CG321-CG2R61/scans_PCY_conformer_18/PCY_conformer_18_forwards/orca_scan E -79.891953679510
  H           0.80189692751707     -3.60012417730330      1.47645160669657
  H          -1.76724633260476     -2.65932725048197      3.17654081160703
  H          -0.80724354530842     -0.29174602011691      1.89253981714783
  H           0.31049274023174      4.28609478255117      0.78618415672232
  H           0.42888921378250     -2.28397049050106      2.62164711498207
  H          -1.13363119886925      2.07372604420230      1.44286968162602
  H           2.66919484731070     -0.28085965362430     -0.58701733817688
  H           1.08045314876198      4.09458129419109     -0.79731892318344
  H          -4.86071738146508     -2.49380176650635      0.23650359188172
  H           2.34278064398747      2.12272772990284     -1.03129309688950
  H          -3.13704046685557     -2.52090060005305     -1.54537665433137
  H          -2.81494616793768      3.23386690183935     -1.32077525769646
  H          -4.15259097781094     -2.61907275942021      2.60732655887051
  N          -1.84039547214204      2.92444813808721     -1.25000198588800
  C          -1.04755454638253      3.93716226556728     -0.78861925140868
  C          -1.75505236533356      5.20384308488108     -0.72633605352433
  C           0.28455192283951      3.71510097273195     -0.14706019154086
  O          -2.95155141308347      5.26636824467631     -1.08152203235787
  C           0.56506396167397      2.26810888198254      0.15891283017989
  C          -0.29289277519172      1.56649086415999      0.99297485084942
  C          -0.11049863787544      0.21886612263612      1.24867072741471
  C           0.95048023743881     -0.45288434555038      0.65574096451851
  C           1.84565259384136      0.25691100516660     -0.14415047965304
  C           1.65487784027510      1.59998551462268     -0.38513788336120
  O           1.20794159084621     -1.79120719765681      0.77577350358595
  C           0.36352039615757     -2.60134081920331      1.57331996408156
  C          -1.08651164987180     -2.64227389150170      1.15663310560568
  C          -2.07029533903475     -2.64231766183447      2.14092166199992
  C          -3.41583695599955     -2.60943295723292      1.82042240364133
  C          -3.81551384995663     -2.54201484274823      0.49327326652706
  C          -2.86190657115339     -2.54826032826318     -0.50255528380135
  C          -1.50744502864614     -2.62576609453439     -0.17695948203386
  N          -0.59679798014745     -2.72918143256910     -1.26926202753808
  O           0.40078142215567     -3.42409096339505     -1.14647022748975
  O          -0.89308023401490     -2.15449536157724     -2.31132282887947
  C          -1.66177725022475      7.60340819873657     -0.22953221787304
  N          -1.07816628740886      6.28533766875783     -0.28144057338761
  H          -0.09251828053262      6.21000292341781     -0.09151593466196
  H          -2.71531789219571      7.51221446750352     -0.48783636227586
  H          -1.56647998183229      8.01539055061459      0.77475696459227
  H          -1.17392280296820      8.27077150829242     -0.94116320612261
  C          -1.49022553007695      1.78351954028415     -1.93646561697038
  O          -0.35047651777702      1.56656911283563     -2.31313963135267
  C          -2.64860058603562      0.85996550730992     -2.18071219832570
  H          -3.30708938353245      1.28558333950290     -2.93424082799592
  H          -2.26264433558732     -0.08929633033517     -2.54409883826120
  H          -3.21162974896265      0.70934027995520     -1.26413917754933
