47
Coordinates from ORCA-job /home/esp/scriptDevelopment/drFrankenstein/11_PCY_CHARMM/04_torsion_scanning/torsion_NH1-CT1-CG321-CG2R61/scans_PCY_conformer_18/PCY_conformer_18_forwards/orca_scan E -79.897757239810
  H           1.36939926999381     -3.55494770294409      0.63235193793214
  H          -0.96032854387892     -3.35599120730292      2.93432620557452
  H          -0.11090266219441     -0.69609666774526      2.49543876972015
  H          -1.70083556366239      3.52163513537442      1.52479741287493
  H           1.12379796827487     -2.68491531749328      2.16861278223703
  H          -1.11800844826176      1.51405640277720      2.58233824979326
  H           1.84403868913337      0.32651456195603     -1.16051700428495
  H          -0.16466511638084      4.30092010033809      1.10740954563439
  H          -4.48580058646717     -2.62569208113862      0.63753152960666
  H           0.83894576435668      2.57923815744566     -1.05818294833189
  H          -3.06950255642802     -2.07440731658466     -1.32224203517479
  H          -2.20360717674251      3.39243241243540     -2.28613590852612
  H          -3.40640919105419     -3.32403398731231      2.75278426544041
  N          -2.08521906448039      3.01341069003698     -1.34125264019073
  C          -1.45290196364110      3.92239427478781     -0.54540975635578
  C          -1.25259396446943      5.18783066256200     -1.23190384877726
  C          -0.89393638261192      3.55693655672663      0.78510296306958
  O          -1.61898104552162      5.30662837967853     -2.42155766020054
  C          -0.23136377639683      2.19952717725278      0.76120573524840
  C          -0.46278306164430      1.26913741939013      1.76158181310480
  C           0.10252853978355      0.00857985164526      1.70914973258279
  C           0.91625370722692     -0.34008638635881      0.63813762077521
  C           1.19746065808759      0.60799183520903     -0.34333912438389
  C           0.62910790409748      1.86224326425746     -0.27783199683815
  O           1.48019959812132     -1.57717688949825      0.45451677741832
  C           0.88305783069423     -2.69238375861948      1.09878052882363
  C          -0.61292822478872     -2.76840712226209      0.91596054333196
  C          -1.42414564898551     -3.09086346886840      1.99667478279709
  C          -2.80457151188395     -3.06352526150435      1.89714288893801
  C          -3.41231941199929     -2.67590084119275      0.71229738655366
  C          -2.63128387946138     -2.35820209245161     -0.37856699062362
  C          -1.24230515425942     -2.43075059566534     -0.28764837604758
  N          -0.50795654313832     -2.17433180306717     -1.48010359441823
  O           0.50804051840179     -2.81653182620051     -1.70496116907324
  O          -0.95958212601623     -1.34375215537523     -2.26331434941756
  C          -0.47463478915729      7.51011951095044     -1.13574498418818
  N          -0.68287485203491      6.20664944331522     -0.55458936806233
  H          -0.46829992661914      6.10064026640891      0.42330764449975
  H          -0.77565788922457      7.46258698449475     -2.18079620048443
  H          -1.07619088834487      8.26013567103430     -0.62113468341126
  H           0.57784013278933      7.78599413325542     -1.07250328891446
  C          -2.69879997257009      1.82743393408562     -1.03202068728647
  O          -2.79850946759799      1.41062618700101      0.11289058512139
  C          -3.22624020920552      1.09515095244093     -2.23136103802503
  H          -3.48743470568132      1.77015064638077     -3.03888041714821
  H          -2.44964889310165      0.41146157845435     -2.57689571393220
  H          -4.09046738305481      0.50559029189000     -1.93944591698123
