47
Coordinates from ORCA-job /home/esp/scriptDevelopment/drFrankenstein/11_PCY_CHARMM/04_torsion_scanning/torsion_NH1-CT1-CG321-CG2R61/scans_PCY_conformer_41/PCY_conformer_41_forwards/orca_scan E -79.900410089790
  H          -2.23864525283199     -3.84377060383136      0.55686454323884
  H          -2.32150671844849     -3.95450648390898      2.89913797314061
  H          -2.14219717579120     -0.96313895894711     -1.91640639771497
  H          -2.33131710420210      4.06958345426919     -0.28025137276232
  H          -1.16962982989199     -2.70188233518498     -0.30394012335449
  H          -1.47534188202477      1.37586201539746     -2.24448885498592
  H          -3.29032812202787     -0.08861624170191      2.09634257730062
  H          -0.79793098891987      3.60002257572458      0.47318603055923
  H          -0.07245302498409     -1.30372055084923      5.38195536930739
  H          -2.61030253081023      2.26450340801610      1.77538827958008
  H           0.68072184666186     -0.08518344333391      3.35975789140250
  H          -0.72066052708379      4.38698671262531     -3.48192939223122
  H          -1.55476100934223     -3.27136474913740      5.13042332380999
  N          -1.37032234687074      4.32155555980169     -2.69003283246052
  C          -0.77633409389711      3.69023448306555     -1.64573444946216
  C           0.56637124146972      3.22782509868388     -1.97211573827814
  C          -1.46936301465326      3.40323543578840     -0.36645763993680
  O           1.06578520828392      3.53031759618778     -3.07699610972403
  C          -1.96809755949471      1.97806407344701     -0.24529777202103
  C          -1.87418475695841      1.06769304340385     -1.28947979591662
  C          -2.25049952849875     -0.25046410873056     -1.11281496365716
  C          -2.73121119418015     -0.67289336204937      0.11961771124728
  C          -2.89272579819298      0.24653246504680      1.15072879035931
  C          -2.51302198410916      1.56067321810264      0.96395377801190
  O          -3.02776471592390     -2.00848676324983      0.34238526923717
  C          -1.86230259095853     -2.82094073681100      0.53469532092094
  C          -1.22240911246834     -2.46401658074861      1.85305511919635
  C          -1.64266817805579     -3.12276147640504      3.00209848181250
  C          -1.22163310663961     -2.72812619727097      4.26083986661005
  C          -0.39028258193611     -1.62674342654869      4.40432898858962
  C           0.03087736775063     -0.94303107373389      3.28343270654569
  C          -0.36410719345916     -1.36615100917435      2.01312418054032
  N           0.16444569866142     -0.63136915332228      0.91779959275144
  O           0.34850944387659      0.57466404407728      1.07176777586195
  O           0.45541144579651     -1.21215286873383     -0.12533538628888
  C           2.50113532558729      1.89227948691014     -1.31708967683212
  N           1.22290609658990      2.50236581880288     -1.04717823959177
  H           0.72880829589631      2.14221418001076     -0.24083333185104
  H           2.86804738774601      2.27233450913155     -2.26874940105814
  H           3.20346682880158      2.14209822079935     -0.52268882626122
  H           2.39818191687323      0.80642309381507     -1.37375288748250
  C          -2.61032843991621      4.89388577922905     -2.82249049859262
  O          -3.44785757158768      4.89980319702373     -1.92996234689966
  C          -2.82320499971885      5.50722106345255     -4.17626145879712
  H          -2.08332772893942      6.28372061280925     -4.35375507843391
  H          -2.72026410781681      4.74921032591681     -4.94872883870784
  H          -3.81867333336058      5.93798065213453     -4.22208215672155
