47
Coordinates from ORCA-job /home/esp/scriptDevelopment/drFrankenstein/11_PCY_CHARMM/04_torsion_scanning/torsion_NH1-CT1-CG321-CG2R61/scans_PCY_conformer_41/PCY_conformer_41_forwards/orca_scan E -79.895904003260
  H          -3.15330461424172     -3.39458065418209      1.90138790750541
  H          -3.24245410368155     -2.18902730824767      3.90175516152633
  H          -2.39557985900421     -2.40090317113635     -1.71973890038763
  H           0.80844769464330      1.23638965253266     -2.26556428974439
  H          -1.82582180677596     -3.19807784148696      0.72290661857975
  H          -1.03898526875648     -0.86829072231917     -3.09141749320504
  H          -2.97555872794510      0.68709685694034      1.16287854853187
  H          -0.39145346896713      1.47439772336708     -3.54088095744992
  H          -0.24849192007678      0.66050197037924      4.98029043261344
  H          -1.58721526321108      2.21179309072505     -0.18440045327176
  H           0.80075010078676      0.36197140946899      2.75516512039347
  H          -1.27295219639432      4.77173278214833     -2.22383455030958
  H          -2.26694265779077     -0.65614375568355      5.55366827803711
  N          -1.35196471456979      3.80974220108908     -2.56683825482816
  C          -0.29337406117183      3.05921542645608     -2.16246570178057
  C           0.59231586456747      3.78282009546702     -1.26320745204474
  C          -0.19334030300441      1.61443233121773     -2.47369559384282
  O           0.46641600849508      5.01846200140436     -1.13749458496701
  C          -1.19323107772377      0.76645358469697     -1.71788836744856
  C          -1.46115098119781     -0.52335465984015     -2.16050506512057
  C          -2.22459566109276     -1.38464908972610     -1.39881111762241
  C          -2.74086982189806     -0.95570518417515     -0.18141194868823
  C          -2.54797423131923      0.35706655992138      0.22829538339349
  C          -1.77373627802542      1.20875585369411     -0.53741106804121
  O          -3.40654174385117     -1.84189027014260      0.65230201841146
  C          -2.50784129494180     -2.67374850988667      1.39902248280847
  C          -1.76589343967199     -1.83737773701616      2.41242586896247
  C          -2.34301571089513     -1.64413399517152      3.66214051944342
  C          -1.80048061977786     -0.76963281596053      4.58837081118394
  C          -0.66989942529721     -0.03147952494509      4.26980240341185
  C          -0.08364535677294     -0.19033890960772      3.03217698299010
  C          -0.61336502089188     -1.09544256306883      2.11055458652172
  N           0.09503721812562     -1.21950611494060      0.88271910096561
  O           0.66795737335753     -0.22450968306137      0.44638746295465
  O           0.14344229055853     -2.30895230279687      0.31732454000872
  C           2.40770694089354      3.68800352564150      0.36950561222605
  N           1.52699388298634      3.07480280044308     -0.59431317412608
  H           1.46487231485901      2.06761611844016     -0.57384208064069
  H           2.31156170198070      4.76811240260702      0.27308505977703
  H           2.13787930881790      3.39123244746013      1.38405595759634
  H           3.43640275665513      3.39058060069043      0.17065567519291
  C          -2.40495923994144      3.49089781587135     -3.38719020009410
  O          -2.54846907364570      2.38633395205297     -3.89171042982635
  C          -3.35313667471113      4.63855705403310     -3.58630505769456
  H          -3.75783595460729      4.95543050496371     -2.62846907927860
  H          -2.83230831671605      5.47919173651103     -4.03786021598725
  H          -4.16438456815705      4.32412431517215     -4.23559049663533
