47
Coordinates from ORCA-job /home/esp/scriptDevelopment/drFrankenstein/11_PCY_CHARMM/04_torsion_scanning/torsion_NH1-CT1-CG321-CG2R61/scans_PCY_conformer_41/PCY_conformer_41_forwards/orca_scan E -79.894458577930
  H          -3.23012484792055     -3.63125859725549      0.49725341506586
  H          -3.70328373416802     -3.53475338620248      2.79989046945137
  H          -1.76840723302386     -1.02275118048128     -1.88493507985625
  H          -0.79868031893615      3.87711912056167      0.33910737880802
  H          -1.74274693089963     -2.92775562222224     -0.19572899052999
  H          -0.46704416538259      1.05575958399714     -2.06187246219063
  H          -3.42321091328117      0.32238851686369      1.80829136200373
  H           0.63674259443563      2.86215071101183      0.13865554599630
  H          -1.13447482815133     -1.52648459715513      5.56024575726757
  H          -2.13419148896184      2.41950188884712      1.62456842293645
  H           0.26155859194847     -0.75335935661964      3.66160077482284
  H          -1.00962054167144      4.07963915230081     -3.41632986533660
  H          -3.10563201936323     -2.95624753709036      5.11141180945762
  N          -1.29281736684422      3.85027396359877     -2.45783867286173
  C          -0.19932524269483      3.63854651794014     -1.67365540737172
  C           1.03833826165664      3.84649211669446     -2.40752123742668
  C          -0.33364307339685      3.11191489895927     -0.29120477538444
  O           0.98465452920559      4.19963908492408     -3.60581565819377
  C          -1.20326625766970      1.87753326230057     -0.22404398469970
  C          -1.12231477328861      0.90720890180379     -1.21573836676085
  C          -1.85097622427805     -0.26237972560591     -1.12268426023605
  C          -2.66841900629027     -0.47818579334938     -0.02009790830403
  C          -2.77589118367863      0.49870635954394      0.96296447038639
  C          -2.04963954882228      1.66842115022087      0.85572862771289
  O          -3.37227346370086     -1.66447627024869      0.12273825328531
  C          -2.55670063411971     -2.77426498394346      0.51890139697987
  C          -2.04482153442289     -2.53702170395975      1.91760942711043
  C          -2.82030125848122     -2.94707704727731      2.99535137660130
  C          -2.49097557933819     -2.60826126231390      4.29690291825924
  C          -1.38632861498609     -1.80852264055948      4.55119044463324
  C          -0.60643900427696     -1.37354417386615      3.50015876510875
  C          -0.91884032649787     -1.74809239622532      2.19302330782757
  N          -0.02409953053412     -1.29854762838925      1.18052971984382
  O           0.51231515738076     -0.20665174975071      1.32953112272691
  O           0.20985611989444     -2.02514595665195      0.21883560076045
  C           3.48780796586277      3.84917301675068     -2.41154362168230
  N           2.21088524036695      3.67014634414274     -1.76616352100941
  H           2.21907699367042      3.36122656194592     -0.80785225219808
  H           3.30286269366018      4.16123305273179     -3.43793785816906
  H           4.06615582610662      4.61660696317659     -1.89701705486523
  H           4.04866938168329      2.91412842392395     -2.41185402723477
  C          -2.62030228113474      3.93291481241918     -2.12631446812940
  O          -3.02755961758112      3.84034808994054     -0.97783831262413
  C          -3.50520078192817      4.15769065924038     -3.31951599839518
  H          -3.23372222199951      5.08482670199684     -3.81791731595957
  H          -3.38955420061925      3.33816686448496     -4.02422292765382
  H          -4.53908460752774      4.21099488884609     -2.99281633997248
