47
Coordinates from ORCA-job /home/esp/scriptDevelopment/drFrankenstein/11_PCY_CHARMM/04_torsion_scanning/torsion_NH1-CT1-CG321-CG2R61/scans_PCY_conformer_41/PCY_conformer_41_forwards/orca_scan E -79.895138167040
  H          -3.82276374079104     -3.12859693713371      1.75760033388402
  H          -3.63480726496380     -2.15662233178666      3.88777516493687
  H          -2.65624469795820     -2.03405661824342     -1.69485469163044
  H           1.06196238796511      1.42072628377440     -1.82441014621479
  H          -2.46298899850766     -3.15354712529741      0.60064132035244
  H          -1.06616884824997     -0.65119758841214     -2.96579216183045
  H          -2.74311129993756      0.89902831492638      1.40002046782897
  H           0.05057192462522      1.40113734466434     -3.27398838456142
  H          -0.07404448466675     -0.17943726630015      5.17669182605912
  H          -1.12948892981398      2.27771658448207      0.13939917091426
  H           0.89630173765230     -0.50704405839012      2.91783037832432
  H          -1.35170462819481      4.70795927405118     -2.37490239467289
  H          -2.34216383680499     -1.04875266695076      5.65844755989519
  N          -1.30790209230358      3.70951996733278     -2.60446079456032
  C          -0.15959855585979      3.15749635660276     -2.12504973452733
  C           0.66402239474141      4.13487674082180     -1.43240041912836
  C           0.08462246823969      1.69626096725868     -2.22092626539633
  O           0.30896729041962      5.33332765293912     -1.42039412483203
  C          -0.97172902678451      0.89680739010531     -1.49059073767999
  C          -1.42463320669673     -0.30959949981311     -2.00761844189536
  C          -2.32325863098655     -1.08511090770325     -1.30220903894245
  C          -2.78477579363929     -0.65504851218304     -0.06360106780981
  C          -2.36853688960639      0.57019488191600      0.44266682072343
  C          -1.46747991988441      1.33750295619233     -0.27031638598001
  O          -3.64955038930156     -1.43964071013851      0.68404731796299
  C          -3.00676811318699     -2.54592748599980      1.32979781225347
  C          -2.10335733249883     -2.02114253053313      2.41781377241981
  C          -2.63165968583236     -1.81531636082834      3.68672702170376
  C          -1.90778052008791     -1.17813035228798      4.68023985486908
  C          -0.63636627188380     -0.69137685071637      4.41323618546994
  C          -0.09156676189924     -0.86792370441619      3.15866749120869
  C          -0.80855738837636     -1.54323965427647      2.17019192616297
  N          -0.14145993172830     -1.72555218500068      0.92522841437689
  O           0.62805435575685     -0.84717519831925      0.55204138317137
  O          -0.32548718811432     -2.75976466806839      0.28986407015797
  C           2.66582167027208      4.60701480594864     -0.10295079664459
  N           1.79508864835174      3.71638875267730     -0.82956367171847
  H           2.01448553499891      2.73380983313321     -0.80116547110486
  H           2.27735176068772      5.61798258314729     -0.21299742870330
  H           2.68924747738184      4.34046049724017      0.95417557114001
  H           3.67595470774980      4.55859067950536     -0.50904654870196
  C          -2.29563456868946      3.17229800226899     -3.38836220331478
  O          -2.26801169256652      2.02373829520671     -3.80674848986279
  C          -3.40327105718447      4.14625770539507     -3.67486496214210
  H          -3.86072609087581      4.46880904388536     -2.74304561157026
  H          -3.01062517427390      5.01946668704281     -4.18956436480509
  H          -4.15121934669234      3.66480161228069     -4.29724952558532
