47
Coordinates from ORCA-job /home/esp/scriptDevelopment/drFrankenstein/11_PCY_CHARMM/04_torsion_scanning/torsion_NH1-CT1-CG321-CG2R61/scans_PCY_conformer_41/PCY_conformer_41_forwards/orca_scan E -79.895860696440
  H          -3.67039078773152     -0.96430748356885      3.89421420303780
  H          -1.98021861694084     -2.20417069714922      4.95778008037573
  H          -3.69644975476592      1.18740446057182      0.79498557463190
  H           1.16507182178271      2.07650156355384     -1.61658156478484
  H          -3.83564311610762     -0.91306314793795      2.11769886384241
  H          -2.56193253535047      1.87708462943987     -1.27645053857047
  H           0.08594475757807      0.48349664358827      2.63657490823111
  H          -0.01960135723492      1.13131580466428     -2.50138010810495
  H           1.00316210112132     -4.32627869320080      2.75544915074922
  H           1.22841040298550      1.18121689372891      0.56304717335031
  H           0.08945280024517     -3.38012126119696      0.65238777265207
  H          -0.98716957400402      4.24307157826079     -3.99396271261107
  H          -0.07313933174795     -3.75220511597324      4.91062876485558
  N          -0.62651759733779      3.30858055317292     -3.76854965497748
  C          -0.44638097096085      3.19125792743061     -2.42568751530308
  C          -0.76142784364675      4.43076335603917     -1.73060676041871
  C           0.09001572474632      1.95727627606741     -1.79217604391435
  O          -1.24005241224072      5.38888532946727     -2.37400052593881
  C          -0.58783102208816      1.58527915745893     -0.49998444543879
  C          -1.97760157014319      1.58429895051133     -0.41702358169225
  C          -2.61823301276721      1.19970514851055      0.74330487186342
  C          -1.86976554419860      0.79585093199157      1.84457307475066
  C          -0.48204846687858      0.80034865544518      1.77576922553273
  C           0.15044205426930      1.19699106335338      0.61177996597960
  O          -2.48309716690574      0.39682731836051      3.01971517825047
  C          -3.12921041322809     -0.87872468146401      2.95171477636929
  C          -2.07601539118723     -1.95409930125958      2.84730060072375
  C          -1.53939975007121     -2.48455805918541      4.01426534769676
  C          -0.45553640788194     -3.34597777457171      3.98809057661337
  C           0.14860493668841     -3.67039724793460      2.78213049046284
  C          -0.35281688804730     -3.14689126303025      1.60864414948191
  C          -1.46843889577105     -2.30955976907223      1.63500083669653
  N          -1.94678577298369     -1.86014084777195      0.37075400711372
  O          -1.12422351567425     -1.65570475805001     -0.51446472414164
  O          -3.15506256513992     -1.72389867410986      0.19999432579052
  C          -0.80657213171912      5.66773077014713      0.38282527661741
  N          -0.47803360164019      4.51320317888523     -0.41591029946799
  H          -0.14161580765109      3.69393752673326      0.06628078040793
  H          -1.19013993174200      6.43809655172559     -0.28371970393291
  H          -1.56777026920944      5.41517555122448      1.12228154376213
  H           0.08315986181651      6.03524392319481      0.89280699044937
  C          -0.47465728704034      2.41308203834833     -4.79357372290867
  O          -0.06019794395410      1.27073066455851     -4.63725752387054
  C          -0.86147013127379      2.98753906829950     -6.12665046671163
  H          -1.90659313231825      3.28693427491856     -6.11380953484546
  H          -0.25380227392489      3.86206059051540     -6.34477490810510
  H          -0.70941166972454      2.23817839530917     -6.89740417454974
