47
Coordinates from ORCA-job /home/esp/scriptDevelopment/drFrankenstein/11_PCY_CHARMM/04_torsion_scanning/torsion_NH1-CT1-CG321-CG2R61/scans_PCY_conformer_41/PCY_conformer_41_forwards/orca_scan E -79.896484291000
  H          -3.99275151039707     -1.22462195170891      3.41253400826750
  H          -2.37696266410500     -2.17759456097007      4.82462578518571
  H          -3.79304704819897      0.78597915445834      0.23652256178185
  H           1.24901911900887      2.17168970653336     -1.48282511694781
  H          -3.85029189677382     -1.27613894674754      1.63401294300713
  H          -2.44560246463613      1.55332332615387     -1.67437263255826
  H          -0.28626033491569      0.65595163864085      2.66116956698655
  H           0.19668279526595      1.22981438828886     -2.54528539601942
  H           1.19165489173619     -3.97024496609140      3.30602043191077
  H           1.06856550921578      1.42365729152637      0.74897389131006
  H           0.55539698257243     -3.24333735327895      1.02096104486698
  H          -1.13990984597928      4.30431152412609     -3.83649897875497
  H          -0.31305775952432     -3.45511598302374      5.20414939400713
  N          -0.78834518768217      3.35656187152702     -3.65684202534885
  C          -0.34590979112666      3.26098699549433     -2.37541326775479
  C          -0.50349825069190      4.51095750507437     -1.64903510292073
  C           0.21022605001085      2.01325294050974     -1.78467064064956
  O          -0.99949028419590      5.50169604234720     -2.22589410476648
  C          -0.59818229143608      1.55572583488693     -0.59370790742946
  C          -1.97091645287428      1.37330970236398     -0.72154967849850
  C          -2.73036944581764      0.94102578799465      0.34684618987530
  C          -2.11847183381580      0.67964452763605      1.56872179578196
  C          -0.74901571532130      0.86586326984964      1.70936913348795
  C           0.00141189612837      1.30616156948838      0.63426769899819
  O          -2.85413820473268      0.24605659817094      2.65830040185299
  C          -3.31063068795578     -1.10783209249970      2.57010347738199
  C          -2.12699643206044     -2.03180651233166      2.71704507368313
  C          -1.74380934902239     -2.43539284414426      3.99048731705827
  C          -0.57325466206798     -3.14319240145519      4.20549075731644
  C           0.27107195349004     -3.43417391846973      3.14386007941364
  C          -0.07520663351758     -3.03192526594514      1.87069247062524
  C          -1.27345143676363     -2.35161826741506      1.65216546736609
  N          -1.57131306038688     -2.02264918380290      0.29791075147063
  O          -0.63634399833660     -1.74567404774695     -0.44291629867916
  O          -2.73645859584958     -2.05841020028991     -0.08492147048605
  C          -0.22838844893567      5.71805935527308      0.46477198331242
  N          -0.06587571802387      4.55696362936975     -0.37474991930810
  H           0.24220528010765      3.70589744509275      0.06843545855175
  H          -0.60670197288643      6.52908745229202     -0.15488019041327
  H          -0.93854590292126      5.51423492484640      1.26741361729221
  H           0.73045114002610      6.00374814067435      0.89560812059668
  C          -0.85269444099775      2.44309438038262     -4.67570511854299
  O          -0.46219193292128      1.28619992546427     -4.57295601523069
  C          -1.44867379880460      3.01534452243196     -5.93050968161260
  H          -2.45591654656221      3.37515581817629     -5.73616361028315
  H          -0.84481477907907      3.84887507525673     -6.28048356078415
  H          -1.48018623824448      2.24506815158986     -6.69504870439948
