47
Coordinates from ORCA-job /home/esp/scriptDevelopment/drFrankenstein/11_PCY_CHARMM/04_torsion_scanning/torsion_NH1-CT1-CG321-CG2R61/scans_PCY_conformer_41/PCY_conformer_41_forwards/orca_scan E -79.899474032520
  H          -2.36160308011235     -3.81645069271699      0.54433853230674
  H          -2.45386339302762     -3.86994439486293      2.88986238819848
  H          -2.15107223169454     -0.92290724783167     -1.92977903576996
  H          -2.15221948309756      4.09413590763914     -0.13274491378708
  H          -1.27015143476502     -2.71478688241329     -0.33991593005452
  H          -1.38887276763853      1.39163816447311     -2.20813567149717
  H          -3.37016651828732     -0.05771617099940      2.06382150869818
  H          -0.61596996233913      3.49923737903945      0.52160081307236
  H          -0.11584350235612     -1.24465527118393      5.31691809502553
  H          -2.61010076296132      2.27697663700675      1.78750860587202
  H           0.67665729017301     -0.09520128399581      3.26978133354685
  H          -0.73990497493495      4.33239363604863     -3.45119153847122
  H          -1.66340983404945     -3.16657587240845      5.10653802181596
  N          -1.35915307049731      4.23921490481499     -2.63886738352613
  C          -0.69056480926236      3.69269068245880     -1.59109648536044
  C           0.66543824499295      3.29599033515511     -1.94498364346732
  C          -1.33498854995232      3.38560934565761     -0.29232179812351
  O           1.13233391899193      3.62915163464544     -3.05477892964029
  C          -1.91926994634239      1.98951543679653     -0.21677459160556
  C          -1.82988215814973      1.08962776984911     -1.26992639588764
  C          -2.25823858229740     -0.21615050922790     -1.12072148766937
  C          -2.77991156586192     -0.63712945065316      0.09512724812526
  C          -2.93978947351389      0.27596311409601      1.13219098024043
  C          -2.51456466970305      1.57923393798932      0.97071464267328
  O          -3.10943240832714     -1.96779292038231      0.30183059438825
  C          -1.96147432788663     -2.80327692169252      0.50355180248366
  C          -1.30672130022852     -2.43923410551511      1.81284496511989
  C          -1.74739093855979     -3.05951239874657      2.97555506657755
  C          -1.31273850792018     -2.65302431833328      4.22588010547974
  C          -0.44501075227956     -1.57733175262469      4.34630372208438
  C          -0.00189425939295     -0.93194990248092      3.21126764233085
  C          -0.41187014839943     -1.36726559394090      1.94983774944433
  N           0.14165045642181     -0.67321269749090      0.83997447131428
  O           0.37606580295219      0.52657979071386      0.97145501086607
  O           0.40333276866848     -1.28358631581600     -0.19400030800587
  C           2.67122762517321      2.04754043146753     -1.33534491164507
  N           1.36848875058100      2.58973301184647     -1.03712279883094
  H           0.89153171078392      2.17475713114659     -0.24722812643857
  H           3.01598126264914      2.48232610011057     -2.27188280348613
  H           3.36501734091431      2.29717726192813     -0.53365764750250
  H           2.61869647310976      0.96147560910393     -1.43697758588632
  C          -2.64157231640890      4.71689608051864     -2.74210832468243
  O          -3.44616669072975      4.68493278817514     -1.82100273973983
  C          -2.94379614438825      5.27595875720692     -4.10249399291722
  H          -2.26762548896791      6.09739043035284     -4.32598313078305
  H          -2.81365790625627      4.50567065234823     -4.85853529112844
  H          -3.96851968482207      5.63385777272781     -4.12329783375743
