47
Coordinates from ORCA-job /home/esp/scriptDevelopment/drFrankenstein/11_PCY_CHARMM/04_torsion_scanning/torsion_NH1-CT1-CG321-CG2R61/scans_PCY_conformer_41/PCY_conformer_41_forwards/orca_scan E -79.893944138850
  H          -3.41765265007057     -0.84163821989014      4.19682743255119
  H          -1.64798004482889     -2.10486123085833      5.09225532907204
  H          -3.72830135301868      1.22113986249792      1.05872950169004
  H           0.85153750337062      1.69020238697189     -1.95443450035841
  H          -3.78283097140583     -0.82291112467426      2.44978343782504
  H          -2.81169882727359      1.82560528792088     -1.14407800385924
  H           0.21642882132487      0.46594719142510      2.49516531717661
  H          -0.61427159002315      1.05537642794314     -2.65069003136790
  H           0.99128293388548     -4.38037233443472      2.62057552788120
  H           1.14070251307705      1.07553270841732      0.28879824229774
  H          -0.13658751638151     -3.46124019471578      0.61149048975355
  H          -0.73316582476577      4.36200676869576     -4.04709336731734
  H           0.19343544801704     -3.71557810536849      4.86875789219550
  N          -0.50042911531264      3.38243803053394     -3.84572379416555
  C          -0.56902394080802      3.15037997695349     -2.50564391208997
  C          -0.86066708677048      4.37778803129605     -1.77640701028983
  C          -0.23913477947350      1.80952494250906     -1.95031650311970
  O          -1.18123562247821      5.40046514085255     -2.41953630156151
  C          -0.77094609756249      1.50471987036128     -0.57902162459548
  C          -2.14440089275989      1.54059092517438     -0.34494269833937
  C          -2.66231342785241      1.20536253330997      0.88943546037523
  C          -1.80627327340142      0.81095148133627      1.91355112535745
  C          -0.43484168012744      0.77697081439274      1.69335894830090
  C           0.07567962900436      1.12345707907910      0.45527529000021
  O          -2.29442372923557      0.45813853062875      3.15943675593951
  C          -2.98520427414249     -0.79497849757691      3.19716157193792
  C          -1.98512948614567     -1.90784488312377      3.00112327255887
  C          -1.33032817621434     -2.42462048297249      4.11244678509395
  C          -0.28285895626491     -3.32139732073945      3.98555372296527
  C           0.16509385099805     -3.69683372829770      2.72735115244100
  C          -0.45593852837851     -3.18866324976771      1.60556693117655
  C          -1.53624923304205     -2.31534308183448      1.73684322856119
  N          -2.14788114751717     -1.88558728542620      0.52535934693875
  O          -1.43211837959401     -1.73884608998305     -0.46020743215247
  O          -3.36340319695746     -1.70714769862279      0.49548280661686
  C          -1.03448148826713      5.54083978060000      0.37094426701242
  N          -0.72474436328625      4.38757568389735     -0.43708254553084
  H          -0.47907550995390      3.53352957349997      0.03978272330344
  H          -1.29900266343558      6.35818726320770     -0.29751128347788
  H          -1.87395978483539      5.32475430331464      1.03291690052829
  H          -0.16847145704272      5.82275795757377      0.96881330770387
  C          -0.27230730493023      2.54133323600866     -4.90223992761637
  O          -0.01893931882879      1.35011036938899     -4.77302687841569
  C          -0.35395915337874      3.24106957341305     -6.22912892498255
  H          -1.35080853475061      3.65033624308788     -6.37311488402311
  H           0.36318936164288      4.05701813305410     -6.26463578392092
  H          -0.13730068080430      2.53172342094051     -7.02192136007037
