47
Coordinates from ORCA-job /home/esp/scriptDevelopment/drFrankenstein/11_PCY_CHARMM/04_torsion_scanning/torsion_NH1-CT1-CG321-CG2R61/scans_PCY_conformer_41/PCY_conformer_41_forwards/orca_scan E -79.890991012710
  H          -3.92168547654804     -3.33354172333848      1.26138890637785
  H          -4.19602530094643     -2.45261717127227      3.42156930022654
  H          -2.10966597435276     -2.08202696492810     -1.83014627539570
  H           1.20116935887054      1.79130941017082     -1.00335719141755
  H          -2.35948748937384     -3.26389530766695      0.39950660971984
  H          -0.39389113979786     -0.57500897777159     -2.73528146821409
  H          -3.01143857549250      0.75855966890132      1.21986861504819
  H           0.79416144811343      1.42308687561782     -2.68490461526436
  H          -1.05838443912548     -0.37316007566777      5.44237442568672
  H          -1.27096629702251      2.26688847987119      0.32884548151977
  H           0.34401221507324     -0.55875202316092      3.40483200877713
  H          -1.31476522348705      4.71053387907927     -1.98186763711112
  H          -3.32737496978007     -1.36502902351648      5.44582316303610
  N          -1.26281953082480      3.69493313798567     -2.11955282775071
  C           0.01985238708768      3.26560102466833     -1.95638599004259
  C           0.94544429642872      4.37820077632922     -1.80200629894282
  C           0.40271631117767      1.84036989912219     -1.75006042408173
  O           0.50879247318849      5.54866831820004     -1.81443306746480
  C          -0.71136622647661      0.95117882616699     -1.26580337277029
  C          -0.96029434872731     -0.27529106539910     -1.86718944163586
  C          -1.92850142547072     -1.12330878953394     -1.36778845694477
  C          -2.66101022471129     -0.75234797684723     -0.24683281259494
  C          -2.43288028223364      0.48093192449519      0.35186010313919
  C          -1.46182074599431      1.32109343740236     -0.15580870971570
  O          -3.61526911951856     -1.60091542177418      0.29415746804041
  C          -3.06382225038869     -2.70473169224585      1.02226959641599
  C          -2.41877081965430     -2.18666578026657      2.28328759302469
  C          -3.19210147077492     -2.05857100535619      3.43090315548425
  C          -2.70702612240598     -1.43249485960155      4.56663563723138
  C          -1.43558194980158     -0.87741176538522      4.56791978615967
  C          -0.65082713010174     -0.97519647183167      3.43797868620927
  C          -1.12769179995168     -1.64086343723262      2.30832128451553
  N          -0.22452708711591     -1.74306162770288      1.21173132124531
  O           0.55108847970966     -0.81420166104936      1.01771600588280
  O          -0.22314371135840     -2.76257536738236      0.52799514997496
  C           3.26494221208493      5.12626720636414     -1.54196983726388
  N           2.25833320568407      4.10077481616051     -1.66726930604885
  H           2.57484612731956      3.14630457671693     -1.71451403960130
  H           2.76029802651626      6.09069228784472     -1.53287749904439
  H           3.82087474293543      4.99747046799639     -0.61331785928536
  H           3.95615850560611      5.08766604256082     -2.38427757807992
  C          -2.34700096033475      3.06995391213081     -2.68596458342710
  O          -2.28229948238246      1.96357845153477     -3.19864454728521
  C          -3.59716708058979      3.89933443665736     -2.61577150275960
  H          -3.82669205873656      4.13252665869190     -1.57931309128917
  H          -3.45954017468077      4.83064621683323     -3.15948434705078
  H          -4.41984090163442      3.34306745742917     -3.05413151723288
