47
Coordinates from ORCA-job /home/esp/scriptDevelopment/drFrankenstein/11_PCY_CHARMM/04_torsion_scanning/torsion_NH1-CT1-CG321-CG2R61/scans_PCY_conformer_41/PCY_conformer_41_forwards/orca_scan E -79.898207209410
  H          -2.51525163621900     -3.77931908567027      0.53551811280070
  H          -2.60136034040083     -3.76495109903925      2.88595651625506
  H          -2.19080574477254     -0.88073377041169     -1.93815651176968
  H          -1.97255390711864      4.10484474174976      0.00599533553505
  H          -1.40548112268678     -2.72441446986720     -0.38201370170013
  H          -1.32535837011146      1.40017726413603     -2.17374698037092
  H          -3.45030434777520     -0.00956584135391      2.04137145256838
  H          -0.44955649637006      3.39116640947513      0.56240982127177
  H          -0.13005235388628     -1.18832317683014      5.23168726048372
  H          -2.59980480158144      2.29814500092609      1.80296781860205
  H           0.69800663100224     -0.12741968130974      3.15130113523541
  H          -0.74685487126850      4.28427221170995     -3.41028987888953
  H          -1.76268244999776     -3.04449313514117      5.07922168076704
  N          -1.33625046775669      4.15370925414863     -2.58214599340238
  C          -0.60374669370056      3.69274155193730     -1.53514820787166
  C           0.76819559248370      3.37982911497270     -1.90937438517648
  C          -1.20537153174800      3.35922765138448     -0.22348866338876
  O           1.20600996659272      3.75824306130880     -3.01590837255325
  C          -1.87602110777203      2.00128962263376     -0.18820332374359
  C          -1.80245773888499      1.11018094396121     -1.24960728142797
  C          -2.28749214901239     -0.17827599508544     -1.12390701528733
  C          -2.84446109133083     -0.59165068678679      0.07866560884011
  C          -2.99135686803552      0.31735892490526      1.12113235403787
  C          -2.51458753703987      1.60501083119281      0.98113590050491
  O          -3.21310401872494     -1.91416575946271      0.27282220659923
  C          -2.08644659077995     -2.77910205695953      0.47249956551614
  C          -1.40136010099607     -2.41307517861318      1.76602770282020
  C          -1.85887781702021     -2.98499158670510      2.94686931692267
  C          -1.39668440771661     -2.56834202292789      4.18391900893512
  C          -0.48118961055806     -1.52980913178112      4.27186720097263
  C          -0.01849769478870     -0.93331218714362      3.11810090571181
  C          -0.45798112220194     -1.37919647190214      1.87030605733190
  N           0.11862386760549     -0.73746166958416      0.74071826382674
  O           0.41903039117131      0.45043953004844      0.84404047566770
  O           0.33323567676596     -1.38182416738817     -0.28375915500245
  C           2.84872373219820      2.23947691533979     -1.33712898568858
  N           1.51639930097645      2.69331428854281     -1.02048859449647
  H           1.05992822088885      2.21444928280296     -0.25545585992348
  H           3.16832938139474      2.73303365342515     -2.25331838577361
  H           3.52574728874155      2.49559032062763     -0.52331147508487
  H           2.86091830142208      1.15788276807421     -1.48530261182508
  C          -2.65840552142438      4.51564228562674     -2.65742095865427
  O          -3.42830968905959      4.43717480344540     -1.71063109240212
  C          -3.04928174039161      5.00672520726773     -4.02162739589058
  H          -2.45674636843943      5.87820402617462     -4.28859722728245
  H          -2.87321091787333      4.22910255288199     -4.76070616329692
  H          -4.10223112379903      5.27116495526375     -4.01876548030360
