47
Coordinates from ORCA-job /home/esp/scriptDevelopment/drFrankenstein/11_PCY_CHARMM/04_torsion_scanning/torsion_NH1-CT1-CG321-CG2R61/scans_PCY_conformer_41/PCY_conformer_41_forwards/orca_scan E -79.896189271140
  H          -4.21985687420689     -1.62847959001358      2.88491644770429
  H          -2.74172948755037     -2.20445580834240      4.61726241750965
  H          -3.79100222391416      0.24187513849652     -0.36707719935958
  H           1.27011136778311      2.16540373995770     -1.36960183376096
  H          -3.75876458173373     -1.74441673492486      1.16430331207984
  H          -2.25576243311627      1.11831184668415     -2.07821797591383
  H          -0.79038219896458      0.79826408507262      2.61268343351259
  H           0.31534578694711      1.30699453182818     -2.59321876738099
  H           1.28738967350464     -3.40562343388982      3.85745219816219
  H           0.75339147899577      1.66451420877199      0.90457424383038
  H           0.95071684630117     -2.92392232344448      1.44721447208537
  H          -1.28445049545581      4.38408342144374     -3.59356685850476
  H          -0.59304396217244     -3.07106725510080      5.43385736192594
  N          -0.96452239281386      3.41703062663357     -3.46372972286218
  C          -0.27258474206886      3.31223657050523     -2.29823259692228
  C          -0.23011486450833      4.57608924581877     -1.57964333348804
  C           0.26717338050616      2.02687629853922     -1.77471926360945
  O          -0.73047591970648      5.59704351453592     -2.09688558420835
  C          -0.65498029053203      1.48095658653977     -0.70535865652441
  C          -1.93949718297473      1.07383334629436     -1.04723409797486
  C          -2.80185682856252      0.57550487419632     -0.09164422475155
  C          -2.38495505907538      0.47834779662783      1.23201621738104
  C          -1.10530492709003      0.88772426094502      1.58450715838462
  C          -0.25093483323155      1.38900166481781      0.61943109607012
  O          -3.22801187374784     -0.01869675860777      2.21168734901464
  C          -3.42868523024433     -1.43548784569095      2.16008222891633
  C          -2.15254134628835     -2.12504401438233      2.57458241767184
  C          -1.93746092737734     -2.38734680918228      3.92239276410332
  C          -0.72149282071066     -2.86241453043523      4.38395864313077
  C           0.33328387537852     -3.05193646023931      3.50294028581593
  C           0.15407736350325     -2.78479155118477      2.16160263519899
  C          -1.08375803919622     -2.34244353564849      1.69416548482690
  N          -1.19005163992282     -2.14651279404994      0.28625046214157
  O          -0.19867780571216     -1.74930749881620     -0.31237990551181
  O          -2.24716796753969     -2.41127735746452     -0.27681072618925
  C           0.43911262062877      5.77588136268251      0.44905296008918
  N           0.38169787643474      4.59709198136116     -0.37919506516839
  H           0.67780305086723      3.72742520560945      0.03279000478575
  H           0.05055669962656      6.61144373638266     -0.13030575760496
  H          -0.16794643788364      5.64559364691697      1.34590443021161
  H           1.47008019626895      5.97867058952625      0.73692851573086
  C          -1.24358671143276      2.51020047855868     -4.45139798618261
  O          -0.89943579044032      1.33487709564484     -4.40811382783761
  C          -2.02108054581466      3.11070721576772     -5.58831687189222
  H          -2.96116141696926      3.51751400089284     -5.22431146076967
  H          -1.44944603093046      3.91477016285129     -6.04495366275210
  H          -2.22100633485741      2.34292706751453     -6.32961116111383
