47
Coordinates from ORCA-job /home/esp/scriptDevelopment/drFrankenstein/11_PCY_CHARMM/04_torsion_scanning/torsion_NH1-CT1-CG321-CG2R61/scans_PCY_conformer_41/PCY_conformer_41_forwards/orca_scan E -79.896073768400
  H          -1.88310002580643     -0.88304936588727      4.70362111794748
  H           0.01710561770549     -2.25947942192678      4.53390732396732
  H          -3.58843987453037      1.39078159397826      2.22094785416152
  H          -1.75259240769423      1.25834764661795     -2.74668586895773
  H          -3.07310455246076     -0.73811194863510      3.38113875268256
  H          -3.85693547961799      2.10277932440098     -0.10955180325065
  H           0.48862710863346      0.39509169311551      1.45954364432473
  H          -2.99537694946650      2.43501081836824     -2.28961046650922
  H           0.90946390065202     -4.46178327838566      0.98309885714316
  H           0.22393251966155      1.11440093138968     -0.89126047564467
  H          -1.01422705344516     -3.37604020077172     -0.14529096552155
  H           0.58862210581502      3.93933517626231     -3.28401626495409
  H           1.39245036229377     -3.91518665952604      3.34953204914401
  N           0.06412272415860      3.05849716584085     -3.23121744617240
  C          -1.01517950040490      3.20908652435089     -2.41951856660847
  C          -1.08819847825215      4.54521583775705     -1.85094448695880
  C          -1.96943627505150      2.11135065395146     -2.10135098791916
  O          -0.23762663133858      5.40120792103850     -2.17277560940599
  C          -1.82547586910027      1.67915613150852     -0.65935170903076
  C          -2.89151647487319      1.75503575526014      0.22838952005734
  C          -2.75021745747915      1.34756019156413      1.54203420022361
  C          -1.52815797641272      0.85615278909739      1.98412495980780
  C          -0.45301605173467      0.78441767317682      1.10440705422195
  C          -0.60447476242539      1.19681681536841     -0.20454173557741
  O          -1.35219921743417      0.44165456835819      3.29300163634902
  C          -2.00843166337444     -0.78670682024217      3.62499158395808
  C          -1.31291772121068     -1.91813800832626      2.90890299435172
  C          -0.22148332037152     -2.52684361643991      3.51666203394877
  C           0.56211236070984     -3.44914344125895      2.84383454558628
  C           0.29294034450500     -3.75866384629249      1.51854343210574
  C          -0.77452282891332     -3.15821404696386      0.88406192274439
  C          -1.58542804724007     -2.25884326966792      1.57666273744208
  N          -2.69597548299056     -1.73061434473857      0.85731953469217
  O          -2.56496819892337     -1.54401725879727     -0.34597177345887
  O          -3.74594807658571     -1.51155743052022      1.45268872234879
  C          -2.24656716649722      6.08107212339676     -0.33411706706903
  N          -2.10673147835926      4.81491074928031     -1.00961672265058
  H          -2.70515159109435      4.06273819913909     -0.70853426748296
  H          -1.50811573370759      6.76487793776492     -0.74871220071994
  H          -3.24696967934017      6.48085737631453     -0.49579202794491
  H          -2.07214171407491      5.96673780050844      0.73672232240808
  C           0.53107879677115      1.98869940913596     -3.94904598865061
  O          -0.01288175824248      0.89117065172149     -3.95928406980038
  C           1.78235818230430      2.30827905720659     -4.71665535458587
  H           1.58927166406417      3.11202300123002     -5.42271605911563
  H           2.56733238942266      2.62748854886742     -4.03573160287805
  H           2.10710142175674      1.42360889240937     -5.25581327874885
