47
Coordinates from ORCA-job /home/esp/scriptDevelopment/drFrankenstein/11_PCY_CHARMM/04_torsion_scanning/torsion_NH1-CT1-CG321-CG2R61/scans_PCY_conformer_41/PCY_conformer_41_forwards/orca_scan E -79.886977935180
  H          -3.78854836613051     -3.52600114291645      1.00043984100933
  H          -4.32817932014698     -2.75639397385485      3.15417010934512
  H          -1.78487097566909     -2.00899916729431     -1.84498399677062
  H           0.99836834502496      2.26299878993616     -0.40440834013498
  H          -2.16022215488722     -3.31955817838941      0.29775497694851
  H          -0.08324472532007     -0.36323487869417     -2.50394889466055
  H          -3.13931138704858      0.60666856227724      1.23794524824173
  H           1.16458924230932      1.54257058403128     -2.00969545529722
  H          -1.52829141686331     -0.61375223075388      5.56713544678449
  H          -1.42020284448366      2.25838985659804      0.59026668406079
  H           0.07654704658868     -0.62950654794796      3.67569255888939
  H          -1.21077629830798      4.82745406347603     -2.15244008152850
  H          -3.72702406283288     -1.72085032205105      5.29939116878239
  N          -1.23434195167618      3.80545344540014     -2.03829366788493
  C           0.04369870342100      3.34054880603779     -1.93646779573608
  C           1.01091674026975      4.40552365460548     -2.17198869040852
  C           0.46020412785910      2.03868080981593     -1.33366301439993
  O           0.60608957385418      5.54246150522127     -2.49658301852929
  C          -0.63185000904872      1.06164683550819     -1.00074363498144
  C          -0.74690039979712     -0.14212419742408     -1.68188768941882
  C          -1.70499022008451     -1.06834797404072     -1.32087825613426
  C          -2.55931629516247     -0.80033097456782     -0.25910063886488
  C          -2.46439417943691      0.40907353556528      0.41895420038566
  C          -1.50326545733330      1.32785693000934      0.04892279312566
  O          -3.50465948144569     -1.73119048992509      0.14610542917896
  C          -2.95425700172352     -2.83565086828828      0.87390597902024
  C          -2.46540038986643     -2.34459630167080      2.21360978534360
  C          -3.35401693281891     -2.31146789708390      3.28169759768936
  C          -3.01987950594987     -1.71474333162706      4.48559475319735
  C          -1.78812680126522     -1.09504462355391      4.63866482886721
  C          -0.89155610215150     -1.09831828536878      3.59069269288970
  C          -1.21625648807283     -1.73355675537330      2.39158935024218
  N          -0.20517157306425     -1.73476652037155      1.38828455359154
  O           0.53364940994844     -0.75991542103740      1.31643212483296
  O          -0.08122819402384     -2.71596839108437      0.66151136206821
  C           3.35957456528325      5.09482608148825     -2.27491900560663
  N           2.32189264740284      4.12161976178562     -2.03545488591275
  H           2.61091447035113      3.18836994244026     -1.79354053373199
  H           2.88048092896235      6.04133661155644     -2.51862768447687
  H           3.97450250344584      5.21694856475506     -1.38346741998078
  H           3.99041597912393      4.78427959663151     -3.10828188234855
  C          -2.41547718938111      3.18864671276705     -2.38131626220959
  O          -2.49374551193612      2.01447568767703     -2.70287251976430
  C          -3.58572901609307      4.13025501136135     -2.33397341511264
  H          -3.64817190832560      4.59904989319439     -1.35586301484393
  H          -3.46632136465245      4.90760316918238     -3.08490984316909
  H          -4.49710675884483      3.57555006199746     -2.53442184258716
