47
Coordinates from ORCA-job /home/esp/scriptDevelopment/drFrankenstein/11_PCY_CHARMM/04_torsion_scanning/torsion_NH1-CT1-CG321-CG2R61/scans_PCY_conformer_41/PCY_conformer_41_forwards/orca_scan E -79.893641495440
  H          -2.95604357481165     -0.98370338092524      4.49180752047866
  H          -0.89951318884180     -1.97074429321783      5.04071490989467
  H          -4.19809678123364      0.94680010096851      1.51269495335290
  H          -1.04522478420049      1.03274650317512     -2.67771318758189
  H          -3.64989205795261     -1.08256442788334      2.84975294151088
  H          -3.87711627595638      1.60923404251088     -0.83183054308475
  H           0.02861520269353      0.72809849615256      2.04101121781686
  H          -2.49755490095375      1.99522703770708     -2.68240374266708
  H           1.52067041846772     -3.94735154873965      2.12730187287218
  H           0.35664263619327      1.38846114964296     -0.32022460432561
  H          -0.07423391170180     -3.24606632534117      0.36175837612431
  H           0.37127412433232      4.15672710334704     -3.73936980250700
  H           1.07138271031799     -3.32660421042569      4.48212451297509
  N          -0.12564941906003      3.25876453257000     -3.70160631779174
  C          -0.70894946556407      3.09699055221370     -2.48165414964053
  C          -0.52130735085888      4.27949913701826     -1.65129941521856
  C          -1.52428492677468      1.88709525357863     -2.18714720070975
  O           0.24783489950206      5.18077407503601     -2.04900680012748
  C          -1.73574102342560      1.55635838537105     -0.73725306303670
  C          -3.01536449170592      1.43068488393508     -0.20671610180811
  C          -3.20223979950448      1.05969418575100      1.11217978096674
  C          -2.10133659673353      0.80237236501893      1.92025840679461
  C          -0.81645979010259      0.93528082652884      1.40302501152507
  C          -0.63988027975617      1.30613995259822      0.08506366313923
  O          -2.25806064102963      0.42282058927744      3.24191752804854
  C          -2.73618708145937     -0.91367513449501      3.42626056008523
  C          -1.64217256510622     -1.88219777522569      3.04908922706114
  C          -0.72814259947080     -2.27354271458018      4.01986173787005
  C           0.39016654513112     -3.02594514676155      3.70247085406809
  C           0.64370065991070     -3.37632766630670      2.38432537008107
  C          -0.23771945818975     -2.98849913952893      1.39687588506581
  C          -1.38330395162365     -2.26267478372765      1.72475626071371
  N          -2.26038315284877     -1.95250951590064      0.64681342646814
  O          -1.76393960719380     -1.73509470869710     -0.45382107214156
  O          -3.47322662336143     -1.94306990173161      0.84209497137601
  C          -1.06840853239054      5.50165442359903      0.39861552732804
  N          -1.21728095062321      4.38737988544660     -0.50405837916208
  H          -1.82075787710775      3.63094192671470     -0.22013205672824
  H          -0.37316660856433      6.20793113028160     -0.05149623142601
  H          -2.03075715468541      5.98727611536629      0.55776265310710
  H          -0.67478289337615      5.16104077583708      1.35688788639875
  C          -0.03948009179259      2.42474736840143     -4.78449365941615
  O          -0.57390309369264      1.32371865426611     -4.83203881557237
  C           0.76903689940667      3.01161891535742     -5.90635505177799
  H           0.32313891419982      3.94659390999962     -6.23574750814333
  H           1.78329201691757      3.21156859419969     -5.57026642015725
  H           0.79381647458135      2.31029980161705     -6.73476093209867
