47
Coordinates from ORCA-job /home/esp/scriptDevelopment/drFrankenstein/11_PCY_CHARMM/04_torsion_scanning/torsion_NH1-CT1-CG321-CG2R61/scans_PCY_conformer_41/PCY_conformer_41_forwards/orca_scan E -79.895488372880
  H          -2.67921177457791     -1.03098677397361      4.54509194956106
  H          -0.59404279820809     -2.05769644527916      4.87389652010821
  H          -4.16649968753724      0.97691624783480      1.73910862309073
  H          -1.57033802755652      1.18046528933664     -2.74010733396009
  H          -3.52242914414441     -1.07512367348057      2.97216403572958
  H          -4.05024278835724      1.71772754573502     -0.59957996034865
  H           0.09045552955239      0.75310465917362      1.88936172827125
  H          -2.81643443300137      2.38985599964792     -2.48746984922402
  H           1.52788647739158     -3.95925675062733      1.69033702744157
  H           0.21169495208190      1.49293315712816     -0.46686201785205
  H          -0.21360363381370     -3.18786117494009      0.10098092310732
  H           0.55785942586164      3.94741924684755     -3.55405844311884
  H           1.30169874479924     -3.41185326373747      4.09483173150109
  N          -0.03596005575724      3.10992851428169     -3.53632698716583
  C          -0.83041680468342      3.12729621302577     -2.43266711853844
  C          -0.63897055395238      4.34038493050682     -1.65121271540214
  C          -1.82807360850349      2.06188097957841     -2.14547731771789
  O           0.25095996698688      5.15040181098966     -1.98647117633431
  C          -1.90859155202621      1.66551070683649     -0.69499010570136
  C          -3.13692161816379      1.52028569272810     -0.05875907969295
  C          -3.20897406604115      1.10395131749518      1.25735655812225
  C          -2.04180356101021      0.82347677748220      1.95782438199510
  C          -0.80759608237827      0.97689080073269      1.33467139062590
  C          -0.74639321487356      1.39377795614653      0.01985509070504
  O          -2.08149976941858      0.40470118570129      3.27645551370489
  C          -2.55750680975875     -0.93182397590053      3.46623988140556
  C          -1.51429280321874     -1.89861690915955      2.96226843695692
  C          -0.52004977041833     -2.32879791914013      3.83266124049435
  C           0.55577627608583     -3.08019205278377      3.39059532121501
  C           0.68441339184880     -3.38965454470190      2.04437734723853
  C          -0.27902380734361     -2.96276403159921      1.15435820185673
  C          -1.38163721443566     -2.23901529069969      1.60892589246678
  N          -2.35203050483897     -1.88870509096144      0.62666935257046
  O          -1.95719563139955     -1.63555527905335     -0.50576892386901
  O          -3.54057385911731     -1.88367596410186      0.93313981710881
  C          -1.33521625800381      5.70696568595035      0.25837249355035
  N          -1.46860741775638      4.56672923780795     -0.61387283738589
  H          -2.13316187729058      3.85479594135483     -0.35251888558471
  H          -0.55985603346078      6.35233187710870     -0.15054630714549
  H          -2.27694149959022      6.25249787921799      0.30736464372737
  H          -1.05082091919436      5.38808648111534      1.26205010713347
  C           0.12378230538349      2.18527751531508     -4.53422948612519
  O          -0.52520497682332      1.14844764312370     -4.60542556569986
  C           1.17178556704184      2.58505424525602     -5.53336928869255
  H           0.89761747340508      3.52732749441135     -6.00106087710152
  H           2.13154171958423      2.71090527654466     -5.03863160423147
  H           1.25366072663227      1.81422083172512     -6.29352232879609
