47
Coordinates from ORCA-job /home/esp/scriptDevelopment/drFrankenstein/11_PCY_CHARMM/04_torsion_scanning/torsion_NH1-CT1-CG321-CG2R61/scans_PCY_conformer_41/PCY_conformer_41_forwards/orca_scan E -79.891111771420
  H          -3.85358550548214     -3.34455923837718      0.68783994634835
  H          -4.04550359257647     -3.23575765001800      3.03021281733796
  H          -2.24901515873827     -0.97605055888908     -1.83475305215309
  H          -0.05103049208777      3.53922999152440      0.38274209875337
  H          -2.35219568207339     -2.88690790079961     -0.16294249722855
  H          -0.64522750370389      0.85727530142158     -2.16993318902639
  H          -3.19603435326939      0.55516591977508      2.03079258345016
  H           1.00907540231448      2.33828939381340     -0.36661522327500
  H          -0.88754158509202     -1.75646971647745      5.49801718364051
  H          -1.60546157686820      2.40914152204867      1.69075030177496
  H           0.40321130086679     -1.18028147221208      3.45956069329652
  H          -0.88939523996328      3.92468090058917     -3.47819243491452
  H          -3.10881315805325     -2.82499222675869      5.26383052196347
  N          -1.14248992833463      3.60583696569033     -2.53606057695666
  C          -0.03467988751178      3.55741599704010     -1.74456869858799
  C           1.13055400415512      4.11386109955830     -2.41645316857209
  C           0.03400417442792      2.82816013960174     -0.44698310421868
  O           1.02274670024616      4.53755914588552     -3.58701027543125
  C          -1.01421780792308      1.76340965589706     -0.26252949034797
  C          -1.21190288724622      0.80559791017410     -1.25177873182993
  C          -2.10989601225073     -0.22658765222061     -1.06977261181593
  C          -2.81587732214486     -0.32188502294497      0.12357493707630
  C          -2.63560623367776      0.63766538292127      1.11213416780090
  C          -1.74112987846756      1.67155712943156      0.91567247113259
  O          -3.69310253774874     -1.37237915865658      0.34897570145903
  C          -3.04382970077224     -2.61619951130723      0.64023589943434
  C          -2.34870935339888     -2.50768708215798      1.97410805339799
  C          -3.05970893534930     -2.80959948138696      3.12927693824724
  C          -2.53711883002813     -2.56417142923873      4.38777410059546
  C          -1.29211642723308     -1.96698303056489      4.52172110194097
  C          -0.56955320713095     -1.64226263114853      3.39277335443170
  C          -1.08190540358375     -1.92644746316347      2.12655830316392
  N          -0.23997361784800     -1.60947211599876      1.02263891919714
  O           0.48747853092379     -0.62768981911115      1.11675342022675
  O          -0.23969759967475     -2.34198347108052      0.03723424816709
  C           3.50140943662129      4.72253524133007     -2.29627798815464
  N           2.29322813129291      4.16910594678302     -1.73556960148779
  H           2.32605588535641      3.86559495425045     -0.77620574092617
  H           3.29094066236076      5.01166407995258     -3.32439681842017
  H           3.81774949137501      5.60000202232158     -1.73172953492459
  H           4.29785947167005      3.97851975526601     -2.28320876423820
  C          -2.47555210303089      3.56894141806788     -2.20824102424439
  O          -2.87452798219358      3.52883798436919     -1.05501687454753
  C          -3.37139097073710      3.59880281253143     -3.41365548589105
  H          -3.22365405978637      4.52296549476403     -3.96688998568818
  H          -3.13900909833353      2.76193826365158     -4.06708844703619
  H          -4.40584955929665      3.53258220385223     -3.09127444291967
