47
Coordinates from ORCA-job /home/esp/scriptDevelopment/drFrankenstein/11_PCY_CHARMM/04_torsion_scanning/torsion_NH1-CT1-CG321-CG2R61/scans_PCY_conformer_41/PCY_conformer_41_forwards/orca_scan E -79.888396086180
  H          -3.84207559672960     -3.46054431449802      1.08342286550055
  H          -4.30795632012382     -2.63090299542405      3.23101063255614
  H          -1.88540165389313     -2.05394628925215     -1.85544091076857
  H           1.10753606407802      2.07025173817261     -0.60925096247217
  H          -2.22843531130591     -3.30684740803773      0.33469435871672
  H          -0.16831439989701     -0.46091118847624     -2.59746849068635
  H          -3.09594674922649      0.65676580198131      1.20525581742573
  H           1.06530463491707      1.48057144193709     -2.27486105562626
  H          -1.40532309531312     -0.48452012960215      5.51580728029254
  H          -1.35619290321060      2.25253392257836      0.47832520676259
  H           0.14744820882454     -0.57604645153637      3.58356127440736
  H          -1.25062477921467      4.78387692402966     -2.02235472084634
  H          -3.63022770642179     -1.55623585549825      5.33368001470650
  N          -1.24024240226061      3.75647261817710     -2.02391395975347
  C           0.04635593611260      3.31365170707537     -1.93574586764979
  C           0.99767288660138      4.41190715550586     -2.03734670883546
  C           0.46424005035899      1.95176567314458     -1.48932269854531
  O           0.57954048481549      5.57422368680447     -2.22532045062517
  C          -0.64179763158176      1.00723991340774     -1.11058183905698
  C          -0.80312637533066     -0.20759187808538     -1.76222162224059
  C          -1.77081421789460     -1.10424039529851     -1.35470874889504
  C          -2.58961865437545     -0.79450930638113     -0.27628458573273
  C          -2.44909824609551      0.42676342701343      0.37218825753125
  C          -1.47780162344349      1.31506574994537     -0.04319707685060
  O          -3.54334791380418     -1.69491917953121      0.17514769631536
  C          -2.99722556296106     -2.79163288793867      0.91792499029729
  C          -2.46389700625496     -2.27726532186214      2.23162556998538
  C          -3.32272923126180     -2.20157996583377      3.32168148685298
  C          -2.94536871446794     -1.58280798715984      4.50144139303041
  C          -1.69884540158132     -0.98296867512315      4.60661912310773
  C          -0.83100828639737     -1.02834033377878      3.53567860803577
  C          -1.19936518979595     -1.68592064025706      2.36148241366520
  N          -0.21580838198220     -1.73077158085106      1.33217522055971
  O           0.53942212063314     -0.77261433986592      1.21708989582781
  O          -0.13006399312678     -2.73146626928597      0.62664195474660
  C           3.33973343824687      5.13236404969321     -2.05343546013904
  N           2.31181828444261      4.12753116534375     -1.93192009908368
  H           2.60984147121830      3.17249573723747     -1.82138731096895
  H           2.85091626098587      6.09705453265975     -2.17699764196786
  H           3.95779713930335      5.14954715561045     -1.15595723164388
  H           3.96955373903829      4.93297205432308     -2.92091608787468
  C          -2.38383639683750      3.12844540336489     -2.46046592507100
  O          -2.39429767145264      1.99046428163136     -2.90067113961641
  C          -3.60010373071951      4.00275599935843     -2.34792858847687
  H          -3.72677351287250      4.32906054580023     -1.31915706000382
  H          -3.48901526998462      4.88054275188857     -2.97970174897811
  H          -4.47348678975792      3.44022995689330     -2.66286606791441
