47
Coordinates from ORCA-job /home/esp/scriptDevelopment/drFrankenstein/11_PCY_CHARMM/04_torsion_scanning/torsion_NH1-CT1-CG321-CG2R61/scans_PCY_conformer_41/PCY_conformer_41_forwards/orca_scan E -79.896302298170
  H          -3.81301153102462     -1.06453319054069      3.69747320838352
  H          -2.15601058619897     -2.23960143856811      4.87960738954863
  H          -3.72704929134299      1.09150928418744      0.60252641831296
  H           1.23521582713935      2.17992599464514     -1.50102646145562
  H          -3.85715629916924     -1.02402735025116      1.91355865320180
  H          -2.49192452538098      1.82093651987487     -1.39577528378025
  H          -0.04413102847634      0.53252677528200      2.68035267975518
  H           0.14682523390877      1.18421011473544     -2.46249833187397
  H           1.06821863631243     -4.22363711311407      2.89905749267073
  H           1.19910113939681      1.26771125082271      0.67899780017221
  H           0.26966360481301     -3.30980429515421      0.73524195936511
  H          -1.07875927120643      4.21675648894248     -3.93500031447980
  H          -0.18594999857447     -3.70439738273142      4.97024327795157
  N          -0.69363536143267      3.29146250324415     -3.71261954003477
  C          -0.38869516004445      3.22101137804289     -2.38985809205119
  C          -0.66624610270876      4.47129201476460     -1.69993229666555
  C           0.18175459663554      2.00812719938864     -1.74468308743129
  O          -1.17739505743262      5.42175870537916     -2.32897527089563
  C          -0.56096568569098      1.60174171424206     -0.49685151288296
  C          -1.95156128419646      1.55168629588270     -0.50067550654101
  C          -2.64887116459859      1.14357640212608      0.61832156626690
  C          -1.95666093386398      0.76874664747382      1.76546672976229
  C          -0.56849163727167      0.82620365724477      1.78432422828181
  C           0.12019668467679      1.24490847034874      0.66072669595099
  O          -2.62793250348709      0.34551194868983      2.89986416042306
  C          -3.21213261908079     -0.95723913504756      2.79421058760631
  C          -2.10865503976076     -1.98586863242756      2.76780432140649
  C          -1.63604816890428     -2.49709219850775      3.97050261329312
  C          -0.51717924130055     -3.31128321122019      4.02260242446953
  C           0.18655435827682     -3.60510224284965      2.86370380316105
  C          -0.25022853539350     -3.09916648483001      1.65706146990306
  C          -1.39959201658956     -2.31044032835008      1.60302030068525
  N          -1.80411799346704     -1.87679348962557      0.30753883440925
  O          -0.92931490567298     -1.62818928314483     -0.51310095367186
  O          -3.00137872822767     -1.79822304829368      0.04875934226784
  C          -0.59804120044837      5.72991473491038      0.40099292713168
  N          -0.31698597626594      4.56561416665801     -0.40146676817887
  H           0.02903078258804      3.74659874189886      0.07359944637369
  H          -1.00257987371270      6.49878555812272     -0.25477023107837
  H          -1.32846241370229      5.49267722534250      1.17569760475872
  H           0.31744276643544      6.09201359486787      0.86747626869318
  C          -0.61145366972373      2.36895953652333     -4.72187164653798
  O          -0.16530163736488      1.23800685793589     -4.56938880088656
  C          -1.11888388532769      2.89772202128773     -6.03332500954690
  H          -2.16533142591138      3.17812628749147     -5.94250345879134
  H          -0.54922478462126      3.77626853622180     -6.32531220390338
  H          -1.01563409260627      2.12907819807841     -6.79306743351860
