47
Coordinates from ORCA-job /home/esp/scriptDevelopment/drFrankenstein/11_PCY_CHARMM/04_torsion_scanning/torsion_NH1-CT1-CG321-CG2R61/scans_PCY_conformer_41/PCY_conformer_41_forwards/orca_scan E -79.895696071760
  H          -4.27827168344897     -2.00509978917373      2.53285295135033
  H          -2.97031674700243     -2.21318726840887      4.47448362914798
  H          -3.72303824853263     -0.27445236103908     -0.79683636574249
  H           1.21879679765663      2.01610222038107     -1.40355067510033
  H          -3.58030083138049     -2.16131348652763      0.89699174628686
  H          -2.10373906938409      0.69658500888522     -2.37442994180408
  H          -1.23536349102566      0.87964987913764      2.46925779129804
  H           0.26419512994969      1.31825353587099     -2.72516290880312
  H           1.26392412637675     -2.75925616032749      4.31035956792993
  H           0.39160955588320      1.83904976985510      0.90060016954120
  H           1.17706628037612     -2.50295404086188      1.84383441164369
  H          -1.40217857048356      4.47881051793786     -3.33928225539593
  H          -0.83792609638398     -2.64721430068688      5.61460652218920
  N          -1.09963103109637      3.49778397677859     -3.30999195867330
  C          -0.27160204763969      3.30355629473488     -2.24800414975481
  C          -0.07314974941943      4.53349382558251     -1.49566391240278
  C           0.22403552481081      1.95861485371289     -1.84325219798181
  O          -0.61900533163454      5.58716843720610     -1.88690406575345
  C          -0.75255449270160      1.35695480255732     -0.85228783689291
  C          -1.92079703421408      0.76027108505606     -1.31275117400269
  C          -2.82977225453439      0.20955790716653     -0.43147811457522
  C          -2.57985338517081      0.25270668676897      0.93573416503957
  C          -1.42152171432165      0.85847364830551      1.40646242852267
  C          -0.51871675312601      1.40764908514484      0.51515309023450
  O          -3.46910658316887     -0.30334174853314      1.84074930753411
  C          -3.43749115236812     -1.73440977402984      1.89390683225901
  C          -2.13592103211005     -2.17143476663087      2.51794400087589
  C          -2.06230840769398     -2.30317551462346      3.89954796380263
  C          -0.85788616280495     -2.53339114337169      4.54271423842283
  C           0.32105775438097     -2.59803299404463      3.81422622314414
  C           0.28081568908124     -2.45495432456239      2.44284175320836
  C          -0.93907134971856     -2.26207918375788      1.79420978468484
  N          -0.88861582496675     -2.18074335585509      0.37193207220086
  O           0.09325758278212     -1.65507867353974     -0.13612575705567
  O          -1.80201094396564     -2.66534571229310     -0.28794594225474
  C           0.95503015280626      5.63845688455196      0.43569023063704
  N           0.72000248000043      4.49407222225498     -0.40856581862356
  H           1.11854066149308      3.61541150961837     -0.12224117434608
  H           0.47098079680339      6.49835329146241     -0.02361103669988
  H           0.53222179455016      5.47364362881428      1.42752944818014
  H           2.02465483515209      5.82615350073311      0.52479156934356
  C          -1.48687640675422      2.67991435395868     -4.33707666685110
  O          -1.14441298845910      1.50747239502018     -4.43651770626718
  C          -2.38203324182465      3.37349005140120     -5.32440465183249
  H          -3.28193988505878      3.72472799681332     -4.82554900334896
  H          -1.86901146537212      4.22925502778958     -5.75590203730480
  H          -2.65275518633673      2.67780220076715     -6.11285454600997
