47
Coordinates from ORCA-job /home/esp/scriptDevelopment/drFrankenstein/11_PCY_CHARMM/04_torsion_scanning/torsion_NH1-CT1-CG321-CG2R61/scans_PCY_conformer_41/PCY_conformer_41_forwards/orca_scan E -79.895318246510
  H          -2.97913297426337     -3.72282524864034      0.48078987325981
  H          -3.51655561565992     -3.62307738973253      2.77013886911942
  H          -1.62289053532646     -1.04240938606581     -1.88714663789885
  H          -1.06301083130714      3.93371459273093      0.28722156616351
  H          -1.52596600530802     -2.93030783484787     -0.18800223741387
  H          -0.44774426129740      1.11146661668887     -2.03809020477796
  H          -3.48386927913906      0.22049333374650      1.73628014235849
  H           0.44876363812897      3.01778939476521      0.24814696254801
  H          -1.14726302213122     -1.42099383439078      5.56091218099875
  H          -2.32234035468647      2.39388649684095      1.57709545661907
  H           0.24538455854410     -0.58860868458428      3.68518559505952
  H          -1.03004010622105      4.21161081142274     -3.40215234373014
  H          -3.01432352094071     -2.97673409059374      5.08631157423515
  N          -1.34801598268228      3.97589249522386     -2.45654475466649
  C          -0.28993437380436      3.67083671140510     -1.65592312565779
  C           0.97424673294051      3.76645013919849     -2.36627204016785
  C          -0.49652187901637      3.18150067548566     -0.26996948171198
  O           0.98189403529753      4.17664683583865     -3.54724575585435
  C          -1.29104349471711      1.89496386293577     -0.22945550451402
  C          -1.11933110520679      0.92742315841262     -1.21191873134088
  C          -1.77744132374330     -0.28447166877589     -1.13374781456845
  C          -2.61502203841641     -0.54477361394852     -0.05618535362265
  C          -2.81940450468803      0.43115564259819      0.91242016292186
  C          -2.16437307182236      1.64343734587010      0.81933171632089
  O          -3.24227876066855     -1.77413976811567      0.07775988426515
  C          -2.36444339409052     -2.82289928724791      0.50634805933603
  C          -1.90184258529091     -2.53578951293630      1.91299419349324
  C          -2.67692387509137     -2.97880084772739      2.97789515814158
  C          -2.40205879373750     -2.60236956641695      4.28176016236174
  C          -1.35579871636581     -1.73197976335015      4.55049186104937
  C          -0.57831479318527     -1.26366514548665      3.51213036696084
  C          -0.83413665444550     -1.67440353979098      2.20351579533883
  N           0.05574945057176     -1.18317145250199      1.20655151355105
  O           0.52074303502091     -0.05838421760269      1.35275699607580
  O           0.35698445742125     -1.90519053923212      0.26009266318357
  C           3.40438585089458      3.46173872504146     -2.34570742641473
  N           2.10605024435532      3.42060811706591     -1.71974415549454
  H           2.05227582984646      3.01451314771719     -0.79969947453997
  H           3.28177347520265      3.88107242411161     -3.34282960078641
  H           4.07978999799277      4.09044103496857     -1.76580782721987
  H           3.82429419562374      2.45825029082723     -2.42376189799298
  C          -2.68174257351118      4.09404283533814     -2.16300630139735
  O          -3.13604413919607      3.93535505920608     -1.03931488696058
  C          -3.51215033851697      4.44209383615221     -3.36586743876642
  H          -3.17966447028876      5.38623648257616     -3.78977006487113
  H          -3.41017440500994      3.66749867502477     -4.12172238698481
  H          -4.55352772206430      4.52384665079546     -3.07021530600754
