47
Coordinates from ORCA-job /home/esp/scriptDevelopment/drFrankenstein/11_PCY_CHARMM/04_torsion_scanning/torsion_NH1-CT1-CG321-CG2R61/scans_PCY_conformer_41/PCY_conformer_41_forwards/orca_scan E -79.900939747990
  H          -2.13856047887309     -3.87040373140264      0.58228360652660
  H          -2.20571515613218     -4.01942943088779      2.92035318591130
  H          -2.14441306982150     -1.01248759781062     -1.90313590702395
  H          -2.49949818451022      4.02341259926631     -0.43252884834155
  H          -1.08965770361055     -2.70089986565935     -0.26633643604649
  H          -1.56343460492116      1.34335742553360     -2.28247682234281
  H          -3.21999164421861     -0.11301031206747      2.12424704406255
  H          -0.98403112189873      3.67941676920768      0.41354635804215
  H          -0.02460295168362     -1.34246531535551      5.43547202688670
  H          -2.61289871261369      2.25215897816491      1.75584352825685
  H           0.69044859714696     -0.07563719100643      3.42875920529345
  H          -0.69346056968242      4.44755989152986     -3.49983269859779
  H          -1.45292454513734     -3.34613739703022      5.15935969607869
  N          -1.37216275030193      4.39765046711004     -2.73076349042588
  C          -0.85769011461672      3.67824330349715     -1.70173555623061
  C           0.47323551373790      3.16528596990936     -2.00274191849088
  C          -1.60022566317712      3.40270607498438     -0.44710862911612
  O           1.00138380447654      3.44747066758696     -3.09998108634598
  C          -2.01812694990389      1.95797880857239     -0.27863620785798
  C          -1.92265020648433      1.03462762464006     -1.31195728103615
  C          -2.25179649144775     -0.29171403196316     -1.10678162981349
  C          -2.69316452516012     -0.70970784998004      0.14215470429735
  C          -2.85369124825455      0.21895631860656      1.16491871885223
  C          -2.51522882611045      1.54054711175136      0.95120677117323
  O          -2.96075286212082     -2.04782119596541      0.38428391811137
  C          -1.78108879702969     -2.84059994144169      0.57013422401475
  C          -1.14997455534302     -2.48506351013791      1.89294831416445
  C          -1.54966345642456     -3.17090640091579      3.03342629731229
  C          -1.13667875724118     -2.78218807628758      4.29667749572600
  C          -0.33545075399274     -1.66052039895707      4.45395978401263
  C           0.06438806355083     -0.95001998839859      3.34193810791575
  C          -0.32150821828397     -1.36673806466114      2.06674255456741
  N           0.18244834824479     -0.60256360697324      0.98039145360285
  O           0.32937656607630      0.60661626233472      1.14981375542066
  O           0.48885631035377     -1.16043210352073     -0.07100784228263
  C           2.35160739437224      1.76973595101224     -1.30680044907141
  N           1.09010398919530      2.42411037059829     -1.06526486126650
  H           0.58633812083680      2.11177202220849     -0.24504558454078
  H           2.73190696097587      2.10247760085421     -2.27067951821165
  H           3.05906441245706      2.02918279228991     -0.51978328991496
  H           2.21653065546702      0.68596981549428     -1.32121929059235
  C          -2.57157680567150      5.04532305517946     -2.88536465032354
  O          -3.44195218014532      5.06731995404764     -2.02452747171807
  C          -2.69663551978497      5.72206219086349     -4.21950994118466
  H          -1.91127357307208      6.46487828438670     -4.33464339665642
  H          -2.60031940691754      4.99129173718241     -5.01858860058379
  H          -3.66587833230395      6.20660396360989     -4.28597934221277
