47
Coordinates from ORCA-job /home/esp/scriptDevelopment/drFrankenstein/11_PCY_CHARMM/04_torsion_scanning/torsion_NH1-CT1-CG321-CG2R61/scans_PCY_conformer_41/PCY_conformer_41_forwards/orca_scan E -79.897353670360
  H          -2.97708572273199     -3.42119412181283      2.01965365453563
  H          -3.03814999156937     -2.14582564860846      3.98367392953760
  H          -2.30437284989724     -2.49047955383698     -1.64144921137250
  H           0.68189677868472      1.22560159248157     -2.41244500464725
  H          -1.69481773593706     -3.22406003915249      0.79263834408108
  H          -1.04221603028800     -0.92578640578055     -3.06584508277662
  H          -3.02130661131895      0.63933658668092      1.16432450187758
  H          -0.60803179340480      1.51164692911004     -3.59040779612789
  H          -0.10395660075474      0.83464749885490      4.85276343213765
  H          -1.73999172877866      2.20186623741527     -0.24287066297406
  H           0.88131155113963      0.48402413761226      2.60563849429756
  H          -1.25935712659666      4.81371368535826     -2.22094141392446
  H          -2.05791687595101     -0.52167873508086      5.54316666995187
  N          -1.36885238636131      3.87435730547337     -2.61587008541392
  C          -0.39311763557902      3.04384158096468     -2.16541613862914
  C           0.45330517687297      3.66952328468519     -1.15972968434146
  C          -0.33168532387524      1.61132115034221     -2.53697594534144
  O           0.38101599919982      4.90174530528222     -0.97336350207520
  C          -1.27435967009100      0.73630958835691     -1.73706410924823
  C          -1.47636939479093     -0.57847008422260     -2.14126329573527
  C          -2.18592674933644     -1.45817927312867     -1.34918999409059
  C          -2.71149277329303     -1.02469778154714     -0.13705394935947
  C          -2.58629214811186      0.30753508837250      0.23391859175364
  C          -1.86946140938594      1.17959736186419     -0.56444239383162
  O          -3.31980404008713     -1.92021899657702      0.72959011159267
  C          -2.37141493709151     -2.69818695323047      1.47297578919439
  C          -1.62428727391499     -1.80451512449429      2.43228683720653
  C          -2.16541521144629     -1.58259525350685      3.69310772444178
  C          -1.62063412216502     -0.65702299658242      4.56709100090774
  C          -0.52596758445640      0.10368872119331      4.18284116315153
  C           0.02376353385322     -0.08337640677070      2.93244509809173
  C          -0.50713552984873     -1.03896548194433      2.06412673444563
  N           0.16223232959829     -1.18801108608718      0.81803283488916
  O           0.67976795586893     -0.19010362976468      0.32127406214481
  O           0.23404024755856     -2.29700326921177      0.29497746989409
  C           2.10481465155781      3.38273888981581      0.61350111192531
  N           1.29260892473703      2.87395473450635     -0.46422437291884
  H           1.17469380914641      1.87150911455367     -0.50312222682036
  H           2.13281069161387      4.46801347679019      0.53254814172820
  H           1.68179896161564      3.10761421482032      1.58153920745748
  H           3.11235931984729      2.97833696205545      0.53444961559280
  C          -2.36939412753852      3.66433806235326     -3.53173896607363
  O          -2.55003664594470      2.59211004005126     -4.09188116089892
  C          -3.21265430239246      4.88578905311092     -3.76004198534429
  H          -3.67222092805588      5.19972042778236     -2.82631561567015
  H          -2.59638850472958      5.69965280555096     -4.13381804824319
  H          -3.98729616556967      4.65580700590186     -4.48506387497796
