47
Coordinates from ORCA-job /home/esp/scriptDevelopment/drFrankenstein/11_PCY_CHARMM/04_torsion_scanning/torsion_NH1-CT1-CG321-CG2R61/scans_PCY_conformer_1/PCY_conformer_1_opt/orca_opt E -79.900214693170
  H      -0.383920     -0.150830      4.761160
  H      -0.794730     -2.461390      4.785160
  H       0.352620      2.406150      2.099010
  H       0.636910      1.273520     -3.010390
  H      -1.156610      0.942000      3.579170
  H       0.004400      3.056880     -0.245760
  H       0.539570     -1.695640      0.945330
  H      -1.015960      0.681120     -2.804410
  H      -3.284450     -4.353740      1.877020
  H       0.148820     -1.049890     -1.404890
  H      -3.501560     -2.189610      0.688160
  H      -0.666880      4.581910     -3.359140
  H      -1.945170     -4.466070      3.955540
  N      -0.130710      3.702270     -3.379040
  C      -0.781320      2.778110     -2.629320
  C      -2.007620      3.340120     -2.059750
  C      -0.278130      1.397650     -2.424750
  O      -2.288260      4.520680     -2.309960
  C       0.013050      1.044290     -0.983980
  C       0.110670      2.012560      0.007880
  C       0.312460      1.653610      1.326280
  C       0.438550      0.313010      1.668650
  C       0.414310     -0.658010      0.673720
  C       0.198970     -0.289700     -0.639860
  O       0.570920     -0.065540      2.993030
  C      -0.659270     -0.023920      3.712580
  C      -1.528820     -1.171350      3.259150
  C      -1.409750     -2.398660      3.900220
  C      -2.047100     -3.531470      3.425600
  C      -2.798980     -3.470530      2.261730
  C      -2.923250     -2.269560      1.596100
  C      -2.308960     -1.122270      2.096370
  N      -2.539190      0.084610      1.367340
  O      -2.645420     -0.006310      0.148010
  O      -2.659610      1.137010      1.975460
  C      -3.950540      3.027680     -0.624860
  N      -2.778980      2.537860     -1.304270
  H      -2.487520      1.598800     -1.064990
  H      -4.062090      4.085160     -0.857380
  H      -4.836930      2.485080     -0.959880
  H      -3.839810      2.895100      0.453040
  C       1.030640      3.640340     -4.110850
  O       1.709870      2.639350     -4.216190
  C       1.355530      4.959290     -4.767160
  H       0.550870      5.251480     -5.438920
  H       1.474030      5.734270     -4.012540
  H       2.278360      4.862600     -5.331420
47
Coordinates from ORCA-job /home/esp/scriptDevelopment/drFrankenstein/11_PCY_CHARMM/04_torsion_scanning/torsion_NH1-CT1-CG321-CG2R61/scans_PCY_conformer_1/PCY_conformer_1_opt/orca_opt E -79.900240693830
  H      -0.213200     -0.216667      4.762280
  H      -0.682635     -2.529823      4.717698
  H       0.418494      2.368821      2.080892
  H       0.628605      1.269526     -3.025041
  H      -1.005707      0.931844      3.650698
  H       0.021827      3.033772     -0.252472
  H       0.557613     -1.726812      0.900343
  H      -1.022254      0.674914     -2.827722
  H      -3.408239     -4.223092      1.898557
  H       0.124945     -1.066396     -1.437424
  H      -3.629745     -2.005518      0.813784
  H      -0.670321      4.585651     -3.343584
  H      -1.948992     -4.462028      3.883596
  N      -0.126300      3.711374     -3.353440
  C      -0.791649      2.769657     -2.636883
  C      -2.046028      3.299387     -2.101869
  C      -0.287291      1.388870     -2.440948
  O      -2.329334      4.494994     -2.309039
  C       0.005762      1.025315     -1.003122
  C       0.124312      1.987340     -0.006656
  C       0.353727      1.620519      1.305551
  C       0.481440      0.277260      1.637103
  C       0.428177     -0.688054      0.637492
  C       0.189534     -0.311585     -0.669483
  O       0.661854     -0.112684      2.954256
  C      -0.535755     -0.053093      3.733339
  C      -1.465829     -1.157390      3.292614
  C      -1.348583     -2.412412      3.877246
  C      -2.051757     -3.504695      3.398390
  C      -2.871124     -3.372946      2.286170
  C      -2.997411     -2.141935      1.677523
  C      -2.316466     -1.035572      2.185371
  N      -2.553172      0.208023      1.528124
  O      -2.724875      0.185828      0.310928
  O      -2.586264      1.242347      2.185410
  C      -4.064617      2.899354     -0.794326
  N      -2.851504      2.455558     -1.434061
  H      -2.566186      1.504549     -1.232814
  H      -4.175136      3.967301     -0.973265
  H      -4.924260      2.369493     -1.206658
  H      -4.011284      2.708005      0.279096
  C       1.060168      3.672349     -4.043387
  O       1.758890      2.675563     -4.132928
  C       1.394241      4.996902     -4.673438
  H       0.612054      5.285306     -5.370818
  H       1.474864      5.764236     -3.907893
  H       2.338424      4.914667     -5.203191
47
Coordinates from ORCA-job /home/esp/scriptDevelopment/drFrankenstein/11_PCY_CHARMM/04_torsion_scanning/torsion_NH1-CT1-CG321-CG2R61/scans_PCY_conformer_1/PCY_conformer_1_opt/orca_opt E -79.900579303740
  H      -0.252170     -0.213368      4.773255
  H      -0.727054     -2.504815      4.793836
  H       0.385121      2.398025      2.089019
  H       0.569124      1.272997     -3.016355
  H      -1.070203      0.913158      3.659067
  H      -0.023532      3.062997     -0.242096
  H       0.504660     -1.698392      0.910386
  H      -1.092466      0.718511     -2.810563
  H      -3.297143     -4.332489      1.913040
  H       0.055415     -1.038159     -1.423981
  H      -3.502752     -2.155219      0.747582
  H      -0.639378      4.615568     -3.373921
  H      -1.924834     -4.483390      3.967494
  N      -0.123825      3.725604     -3.370161
  C      -0.811919      2.809123     -2.639268
  C      -2.050437      3.366159     -2.100730
  C      -0.341675      1.417701     -2.431208
  O      -2.328621      4.569127     -2.325862
  C      -0.048773      1.054711     -0.992886
  C       0.080381      2.016474      0.002393
  C       0.316551      1.649500      1.313973
  C       0.445353      0.305831      1.645401
  C       0.380281     -0.659924      0.646847
  C       0.129929     -0.283378     -0.658358
  O       0.626917     -0.084624      2.965153
  C      -0.577475     -0.059867      3.744755
  C      -1.476223     -1.189231      3.300697
  C      -1.359019     -2.425207      3.924379
  C      -2.022831     -3.544401      3.449235
  C      -2.793950     -3.462196      2.298068
  C      -2.911469     -2.253521      1.644433
  C      -2.274737     -1.118910      2.149928
  N      -2.483043      0.089056      1.430110
  O      -2.587785      0.016718      0.205540
  O      -2.578977      1.157809      2.035077
  C      -4.056911      3.020833     -0.756967
  N      -2.855727      2.550608     -1.403084
  H      -2.571321      1.605774     -1.173433
  H      -4.167268      4.083123     -0.966494
  H      -4.923665      2.481437     -1.136686
  H      -3.984889      2.863966      0.320726
  C       1.060836      3.648117     -4.056618
  O       1.738273      2.625473     -4.127311
  C       1.431902      4.945922     -4.708005
  H       0.659891      5.240306     -5.412044
  H       1.529225      5.723152     -3.956436
  H       2.375220      4.827330     -5.231925
47
Coordinates from ORCA-job /home/esp/scriptDevelopment/drFrankenstein/11_PCY_CHARMM/04_torsion_scanning/torsion_NH1-CT1-CG321-CG2R61/scans_PCY_conformer_1/PCY_conformer_1_opt/orca_opt E -79.899892131760
  H      -0.362624     -0.176203      4.761302
  H      -0.712575     -2.493002      4.745425
  H       0.296456      2.436980      2.086243
  H       0.634715      1.285174     -3.018894
  H      -1.186215      0.923473      3.624412
  H      -0.052449      3.082419     -0.259629
  H       0.535481     -1.662088      0.934656
  H      -1.022018      0.707899     -2.824814
  H      -3.256184     -4.390014      1.885726
  H       0.146397     -1.022457     -1.416837
  H      -3.571934     -2.209067      0.752245
  H      -0.630797      4.606923     -3.411525
  H      -1.846287     -4.508027      3.917065
  N      -0.110935      3.720326     -3.412086
  C      -0.774601      2.802955     -2.660886
  C      -1.999110      3.350034     -2.088761
  C      -0.284298      1.420274     -2.443455
  O      -2.316518      4.536924     -2.344405
  C      -0.007648      1.070818     -0.999853
  C       0.071855      2.039886     -0.007183
  C       0.271471      1.684094      1.312919
  C       0.412099      0.344691      1.654991
  C       0.402069     -0.627216      0.660555
  C       0.187091     -0.262045     -0.653736
  O       0.556321     -0.035778      2.981090
  C      -0.671054     -0.036436      3.725717
  C      -1.529013     -1.193636      3.273424
  C      -1.359758     -2.429424      3.885615
  C      -1.987603     -3.568434      3.409173
  C      -2.779214     -3.504816      2.271219
  C      -2.956660     -2.294688      1.634138
  C      -2.354755     -1.141172      2.139832
  N      -2.645806      0.065137      1.449667
  O      -2.839845     -0.001654      0.236041
  O      -2.820149      1.108570      2.081299
  C      -3.915765      3.021659     -0.615052
  N      -2.742404      2.550549     -1.308680
  H      -2.412330      1.631999     -1.041473
  H      -4.072230      4.066885     -0.874568
  H      -4.786162      2.436501     -0.909680
  H      -3.772013      2.928337      0.462821
  C       1.060009      3.649375     -4.120624
  O       1.743243      2.630855     -4.196843
  C       1.409573      4.942702     -4.792353
  H       0.621433      5.225048     -5.484507
  H       1.516336      5.728728     -4.050268
  H       2.343413      4.824961     -5.333465
47
Coordinates from ORCA-job /home/esp/scriptDevelopment/drFrankenstein/11_PCY_CHARMM/04_torsion_scanning/torsion_NH1-CT1-CG321-CG2R61/scans_PCY_conformer_1/PCY_conformer_1_opt/orca_opt E -79.900874481350
  H      -0.311232     -0.188907      4.758692
  H      -0.697105     -2.503743      4.751641
  H       0.326012      2.413955      2.085900
  H       0.620299      1.285114     -3.021022
  H      -1.134347      0.918846      3.626206
  H      -0.041390      3.070461     -0.253654
  H       0.530430     -1.682272      0.917420
  H      -1.038382      0.708318     -2.828721
  H      -3.298031     -4.360059      1.916251
  H       0.123599     -1.031462     -1.428796
  H      -3.582059     -2.175313      0.780109
  H      -0.635617      4.610661     -3.393643
  H      -1.871788     -4.500560      3.935258
  N      -0.115198      3.724271     -3.392704
  C      -0.786580      2.803495     -2.654955
  C      -2.019665      3.349560     -2.099560
  C      -0.298545      1.418304     -2.443686
  O      -2.320097      4.536976     -2.345021
  C      -0.016537      1.061411     -1.001903
  C       0.076275      2.025973     -0.005997
  C       0.287195      1.664049      1.310491
  C       0.425702      0.323196      1.646212
  C       0.398329     -0.645239      0.648750
  C       0.173892     -0.273760     -0.662358
  O       0.587079     -0.059653      2.967932
  C      -0.628072     -0.046390      3.725254
  C      -1.502001     -1.192967      3.281768
  C      -1.349240     -2.430268      3.895487
  C      -2.000737     -3.558480      3.426589
  C      -2.801484     -3.482062      2.296199
  C      -2.961946     -2.270222      1.657984
  C      -2.333762     -1.127616      2.155162
  N      -2.603154      0.085225      1.466004
  O      -2.759773      0.029838      0.247857
  O      -2.682860      1.139067      2.092830
  C      -3.979079      3.007178     -0.686008
  N      -2.792103      2.540243     -1.356839
  H      -2.480524      1.612206     -1.105755
  H      -4.116506      4.059815     -0.925772
  H      -4.847288      2.438156     -1.019846
  H      -3.867867      2.886613      0.393168
  C       1.063829      3.656849     -4.089164
  O       1.744714      2.642736     -4.163938
  C       1.421484      4.956930     -4.750835
  H       0.640532      5.244975     -5.450760
  H       1.521670      5.740124     -4.003019
  H       2.360937      4.842447     -5.283209
47
Coordinates from ORCA-job /home/esp/scriptDevelopment/drFrankenstein/11_PCY_CHARMM/04_torsion_scanning/torsion_NH1-CT1-CG321-CG2R61/scans_PCY_conformer_1/PCY_conformer_1_opt/orca_opt E -79.900938781450
  H      -0.256012     -0.199090      4.762408
  H      -0.711352     -2.500158      4.772522
  H       0.378481      2.393571      2.084457
  H       0.591074      1.274830     -3.021019
  H      -1.066894      0.923445      3.635205
  H      -0.019720      3.057827     -0.247839
  H       0.511681     -1.702936      0.907566
  H      -1.070359      0.709836     -2.822711
  H      -3.326577     -4.314343      1.923121
  H       0.076414     -1.043684     -1.430961
  H      -3.545990     -2.131793      0.768588
  H      -0.641743      4.613388     -3.371814
  H      -1.923656     -4.474571      3.956953
  N      -0.123081      3.725859     -3.369451
  C      -0.803035      2.802369     -2.643136
  C      -2.042188      3.346534     -2.098647
  C      -0.323615      1.412816     -2.438756
  O      -2.328268      4.542438     -2.320470
  C      -0.032018      1.049784     -0.999672
  C       0.086928      2.011426     -0.003413
  C       0.316872      1.645223      1.308993
  C       0.447120      0.302556      1.640568
  C       0.387884     -0.664064      0.642578
  C       0.146883     -0.287936     -0.664435
  O       0.626928     -0.083572      2.959274
  C      -0.578166     -0.050702      3.731290
  C      -1.475830     -1.179436      3.290298
  C      -1.354354     -2.416932      3.910563
  C      -2.026812     -3.533004      3.441925
  C      -2.814890     -3.445434      2.303366
  C      -2.940272     -2.234581      1.655583
  C      -2.291752     -1.102981      2.152626
  N      -2.513502      0.108326      1.443806
  O      -2.673491      0.038022      0.226717
  O      -2.595383      1.169763      2.057299
  C      -4.038960      2.979695     -0.741373
  N      -2.841070      2.522770     -1.399899
  H      -2.546151      1.581961     -1.175821
  H      -4.160606      4.041136     -0.948984
  H      -4.904098      2.430869     -1.114145
  H      -3.954496      2.822084      0.335573
  C       1.062783      3.661229     -4.055386
  O       1.744927      2.647600     -4.129256
  C       1.427778      4.964717     -4.705454
  H       0.654192      5.257571     -5.410964
  H       1.521332      5.743248     -3.952426
  H       2.372070      4.852344     -5.229248
47
Coordinates from ORCA-job /home/esp/scriptDevelopment/drFrankenstein/11_PCY_CHARMM/04_torsion_scanning/torsion_NH1-CT1-CG321-CG2R61/scans_PCY_conformer_1/PCY_conformer_1_opt/orca_opt E -79.901018104040
  H      -0.290347     -0.185643      4.758131
  H      -0.722980     -2.487557      4.773495
  H       0.363430      2.405796      2.079480
  H       0.603285      1.278181     -3.025537
  H      -1.102735      0.928325      3.624138
  H      -0.019926      3.064627     -0.256790
  H       0.508344     -1.693267      0.912303
  H      -1.057010      0.709738     -2.826962
  H      -3.311650     -4.337995      1.923456
  H       0.088382     -1.039272     -1.430451
  H      -3.551659     -2.161682      0.761850
  H      -0.639310      4.614289     -3.380208
  H      -1.912840     -4.476824      3.961625
  N      -0.121065      3.726715     -3.380363
  C      -0.795461      2.802788     -2.649348
  C      -2.029620      3.345081     -2.092858
  C      -0.312118      1.414868     -2.444152
  O      -2.323421      4.539933     -2.315579
  C      -0.023359      1.055047     -1.004314
  C       0.088432      2.018986     -0.009705
  C       0.309346      1.655818      1.305003
  C       0.436917      0.313709      1.640443
  C       0.386833     -0.655059      0.643992
  C       0.154648     -0.281859     -0.665388
  O       0.604153     -0.069798      2.961841
  C      -0.608150     -0.042404      3.725149
  C      -1.495853     -1.179790      3.284480
  C      -1.364707     -2.413742      3.909868
  C      -2.024319     -3.538278      3.443142
  C      -2.809749     -3.462830      2.301936
  C      -2.946094     -2.255546      1.649857
  C      -2.311340     -1.115156      2.145047
  N      -2.549525      0.091162      1.433621
  O      -2.692477      0.018706      0.214354
  O      -2.635784      1.155598      2.042591
  C      -4.000126      2.980921     -0.696882
  N      -2.813015      2.523613     -1.374398
  H      -2.507565      1.587246     -1.144776
  H      -4.132713      4.039121     -0.913984
  H      -4.868932      2.422433     -1.045457
  H      -3.892469      2.836596      0.379835
  C       1.061098      3.663327     -4.072509
  O       1.744574      2.649750     -4.149249
  C       1.421271      4.966006     -4.725573
  H       0.643741      5.257349     -5.427103
  H       1.518000      5.745220     -3.973903
  H       2.362871      4.853771     -5.254149
47
Coordinates from ORCA-job /home/esp/scriptDevelopment/drFrankenstein/11_PCY_CHARMM/04_torsion_scanning/torsion_NH1-CT1-CG321-CG2R61/scans_PCY_conformer_1/PCY_conformer_1_opt/orca_opt E -79.901025333530
  H      -0.293787     -0.184459      4.757377
  H      -0.724930     -2.487023      4.771505
  H       0.364658      2.407841      2.079092
  H       0.603811      1.277446     -3.025624
  H      -1.105751      0.929361      3.622447
  H      -0.017773      3.064990     -0.257761
  H       0.511548     -1.692028      0.914754
  H      -1.055940      0.707461     -2.825303
  H      -3.311661     -4.336506      1.918866
  H       0.091598     -1.039854     -1.428523
  H      -3.551053     -2.159499      0.758189
  H      -0.639715      4.612974     -3.379373
  H      -1.913964     -4.476187      3.957983
  N      -0.122548      3.724923     -3.379730
  C      -0.796036      2.800985     -2.648431
  C      -2.029691      3.342885     -2.090523
  C      -0.311290      1.413469     -2.443450
  O      -2.324421      4.536956     -2.314463
  C      -0.021384      1.054736     -1.003625
  C       0.090748      2.019536     -0.009911
  C       0.311015      1.657354      1.305111
  C       0.438272      0.315440      1.641464
  C       0.389668     -0.654002      0.645661
  C       0.157488     -0.281833     -0.663938
  O       0.603543     -0.067222      2.963148
  C      -0.610315     -0.041018      3.724060
  C      -1.495901     -1.179084      3.281575
  C      -1.365633     -2.413078      3.907061
  C      -2.024926     -3.537451      3.439549
  C      -2.809709     -3.461516      2.297914
  C      -2.945710     -2.253937      1.646307
  C      -2.310627     -1.113893      2.141859
  N      -2.549385      0.093151      1.432210
  O      -2.698786      0.021780      0.213598
  O      -2.634258      1.156449      2.043068
  C      -3.999229      2.980122     -0.693259
  N      -2.813631      2.521570     -1.372232
  H      -2.507730      1.585507     -1.141042
  H      -4.133007      4.037552     -0.913296
  H      -4.868447      2.419769     -1.038004
  H      -3.888627      2.839382      0.383700
  C       1.059625      3.661648     -4.071858
  O       1.742626      2.648081     -4.148740
  C       1.419824      4.964210     -4.725593
  H       0.642210      5.255548     -5.427256
  H       1.516870      5.743936     -3.974292
  H       2.361372      4.851550     -5.254266
47
Coordinates from ORCA-job /home/esp/scriptDevelopment/drFrankenstein/11_PCY_CHARMM/04_torsion_scanning/torsion_NH1-CT1-CG321-CG2R61/scans_PCY_conformer_1/PCY_conformer_1_opt/orca_opt E -79.901030685230
  H      -0.296445     -0.182921      4.757534
  H      -0.728663     -2.484869      4.772019
  H       0.367489      2.410505      2.077940
  H       0.600100      1.274524     -3.025850
  H      -1.108162      0.930945      3.622135
  H      -0.016070      3.065319     -0.259395
  H       0.510739     -1.690772      0.918025
  H      -1.059721      0.705593     -2.823030
  H      -3.305885     -4.336334      1.911950
  H       0.089093     -1.041023     -1.425624
  H      -3.543543     -2.159412      0.750694
  H      -0.639112      4.611804     -3.379261
  H      -1.914015     -4.474909      3.955353
  N      -0.124420      3.722498     -3.379054
  C      -0.798382      2.799260     -2.647716
  C      -2.031102      3.341826     -2.088441
  C      -0.314206      1.411459     -2.442699
  O      -2.324341      4.536732     -2.310338
  C      -0.022850      1.054059     -1.002821
  C       0.091554      2.020028     -0.010451
  C       0.312439      1.659222      1.304858
  C       0.438431      0.317514      1.642610
  C       0.388995     -0.652993      0.647871
  C       0.155861     -0.282194     -0.661931
  O       0.602993     -0.063891      2.964697
  C      -0.612232     -0.039114      3.724073
  C      -1.496034     -1.177656      3.279670
  C      -1.366967     -2.411452      3.905763
  C      -2.024142     -3.536333      3.436460
  C      -2.805575     -3.461039      2.292450
  C      -2.940563     -2.253600      1.640449
  C      -2.307738     -1.112918      2.137708
  N      -2.546053      0.093909      1.428017
  O      -2.694647      0.022905      0.209069
  O      -2.632645      1.157133      2.038948
  C      -3.999710      2.981776     -0.689411
  N      -2.817321      2.520710     -1.372137
  H      -2.512282      1.584084     -1.140488
  H      -4.134278      4.038519     -0.912250
  H      -4.870256      2.420165     -1.028541
  H      -3.884253      2.844787      0.387631
  C       1.058466      3.658577     -4.070174
  O       1.741084      2.644636     -4.146336
  C       1.420257      4.960698     -4.723723
  H       0.643685      5.252590     -5.426318
  H       1.517147      5.740658     -3.972624
  H       2.362292      4.847012     -5.251311
47
Coordinates from ORCA-job /home/esp/scriptDevelopment/drFrankenstein/11_PCY_CHARMM/04_torsion_scanning/torsion_NH1-CT1-CG321-CG2R61/scans_PCY_conformer_1/PCY_conformer_1_opt/orca_opt E -79.901033853840
  H      -0.294692     -0.183511      4.757765
  H      -0.728606     -2.484682      4.771253
  H       0.369441      2.411626      2.076755
  H       0.596435      1.271805     -3.026569
  H      -1.107080      0.931665      3.623945
  H      -0.015953      3.065024     -0.260734
  H       0.510617     -1.690405      0.919390
  H      -1.063587      0.704182     -2.821759
  H      -3.302222     -4.334928      1.907126
  H       0.086990     -1.042174     -1.424367
  H      -3.539994     -2.157010      0.747748
  H      -0.637847      4.611118     -3.379447
  H      -1.912566     -4.474466      3.952140
  N      -0.125440      3.720637     -3.378332
  C      -0.800460      2.797872     -2.647670
  C      -2.032865      3.340892     -2.088228
  C      -0.317179      1.409698     -2.442660
  O      -2.324439      4.536729     -2.307957
  C      -0.024692      1.053162     -1.002760
  C       0.091141      2.019824     -0.011183
  C       0.313065      1.659887      1.304229
  C       0.438662      0.318343      1.642799
  C       0.388293     -0.652839      0.648703
  C       0.154210     -0.282886     -0.661197
  O       0.604118     -0.062088      2.965063
  C      -0.611325     -0.038501      3.724735
  C      -1.495098     -1.176574      3.279330
  C      -1.366245     -2.410811      3.904555
  C      -2.022563     -3.535591      3.433800
  C      -2.802778     -3.459747      2.288981
  C      -2.937784     -2.251843      1.637962
  C      -2.306158     -1.111056      2.136769
  N      -2.545033      0.096036      1.428159
  O      -2.693943      0.026092      0.208977
  O      -2.631752      1.159072      2.039664
  C      -4.002050      2.982559     -0.689945
  N      -2.821941      2.519390     -1.375337
  H      -2.517417      1.582801     -1.142127
  H      -4.139011      4.037974     -0.917575
  H      -4.872841      2.417729     -1.022712
  H      -3.882143      2.851478      0.387449
  C       1.058872      3.656615     -4.067450
  O       1.741466      2.642567     -4.142951
  C       1.421968      4.958561     -4.720378
  H       0.646720      5.250702     -5.424306
  H       1.517865      5.738654     -3.969310
  H       2.364854      4.844440     -5.246340
47
Coordinates from ORCA-job /home/esp/scriptDevelopment/drFrankenstein/11_PCY_CHARMM/04_torsion_scanning/torsion_NH1-CT1-CG321-CG2R61/scans_PCY_conformer_1/PCY_conformer_1_opt/orca_opt E -79.901035572450
  H      -0.292281     -0.183984      4.757333
  H      -0.727632     -2.484634      4.770879
  H       0.368840      2.411523      2.075574
  H       0.594559      1.270568     -3.027862
  H      -1.105347      0.931946      3.624640
  H      -0.017754      3.064552     -0.261862
  H       0.510721     -1.690550      0.918687
  H      -1.065684      0.703680     -2.822184
  H      -3.302462     -4.333726      1.907120
  H       0.086245     -1.042746     -1.425062
  H      -3.540162     -2.155438      0.748377
  H      -0.637087      4.611076     -3.379681
  H      -1.912469     -4.473920      3.951931
  N      -0.125734      3.720040     -3.378208
  C      -0.801526      2.797271     -2.648421
  C      -2.033854      3.340340     -2.088914
  C      -0.318762      1.408907     -2.443631
  O      -2.324696      4.536613     -2.307232
  C      -0.025861      1.052611     -1.003724
  C       0.089719      2.019396     -0.012259
  C       0.312332      1.659714      1.303123
  C       0.438577      0.318284      1.641859
  C       0.387858     -0.653077      0.647925
  C       0.153406     -0.283357     -0.662001
  O       0.605129     -0.061636      2.964151
  C      -0.609884     -0.038417      3.724662
  C      -1.494267     -1.176037      3.279498
  C      -1.365517     -2.410438      3.904389
  C      -2.022318     -3.534969      3.433710
  C      -2.802814     -3.458724      2.289112
  C      -2.937762     -2.250662      1.638426
  C      -2.305759     -1.110024      2.137199
  N      -2.544448      0.097074      1.428720
  O      -2.694216      0.027032      0.209596
  O      -2.629238      1.160494      2.039900
  C      -4.002904      2.981703     -0.690731
  N      -2.824010      2.517988     -1.378097
  H      -2.518769      1.582111     -1.143163
  H      -4.143641      4.035501     -0.923443
  H      -4.872991      2.412443     -1.017506
  H      -3.879164      2.856809      0.387018
  C       1.059639      3.656373     -4.065842
  O       1.742583      2.642590     -4.140818
  C       1.423544      4.958805     -4.717319
  H       0.649401      5.251323     -5.422292
  H       1.518214      5.738499     -3.965689
  H       2.367256      4.845090     -5.241888
47
Coordinates from ORCA-job /home/esp/scriptDevelopment/drFrankenstein/11_PCY_CHARMM/04_torsion_scanning/torsion_NH1-CT1-CG321-CG2R61/scans_PCY_conformer_1/PCY_conformer_1_opt/orca_opt E -79.901037221920
  H      -0.286487     -0.185449      4.756484
  H      -0.723187     -2.485627      4.769602
  H       0.370385      2.410106      2.074009
  H       0.592033      1.269628     -3.029816
  H      -1.100505      0.931739      3.625716
  H      -0.018521      3.063738     -0.262883
  H       0.509680     -1.691734      0.916289
  H      -1.068658      0.704085     -2.823039
  H      -3.304741     -4.331801      1.910097
  H       0.083655     -1.043329     -1.427007
  H      -3.543588     -2.152737      0.753024
  H      -0.635791      4.611812     -3.378960
  H      -1.910964     -4.473755      3.952221
  N      -0.125190      3.720376     -3.377108
  C      -0.802607      2.797371     -2.649218
  C      -2.035493      3.340456     -2.090815
  C      -0.320829      1.408622     -2.445035
  O      -2.325503      4.537042     -2.307993
  C      -0.027136      1.051995     -1.005302
  C       0.089105      2.018492     -0.013669
  C       0.313095      1.658507      1.301394
  C       0.439552      0.317028      1.639824
  C       0.387150     -0.654155      0.645810
  C       0.151820     -0.284105     -0.663876
  O       0.607892     -0.062879      2.961918
  C      -0.605811     -0.039148      3.724424
  C      -1.492053     -1.175791      3.280481
  C      -1.362798     -2.410594      3.904451
  C      -2.021239     -3.534518      3.434619
  C      -2.803918     -3.457257      2.291597
  C      -2.939444     -2.248795      1.641807
  C      -2.305854     -1.108693      2.139819
  N      -2.545182      0.098759      1.432120
  O      -2.696955      0.028904      0.213252
  O      -2.627911      1.162236      2.043455
  C      -4.006607      2.980078     -0.696227
  N      -2.827529      2.516557     -1.383737
  H      -2.521246      1.581804     -1.146154
  H      -4.153070      4.031359     -0.936556
  H      -4.874468      2.403816     -1.016346
  H      -3.879849      2.864141      0.382220
  C       1.061736      3.657077     -4.062347
  O       1.744497      2.643288     -4.137137
  C       1.426627      4.960104     -4.712159
  H       0.653848      5.252954     -5.418485
  H       1.519660      5.739295     -3.959818
  H       2.371409      4.847018     -5.234948
47
Coordinates from ORCA-job /home/esp/scriptDevelopment/drFrankenstein/11_PCY_CHARMM/04_torsion_scanning/torsion_NH1-CT1-CG321-CG2R61/scans_PCY_conformer_1/PCY_conformer_1_opt/orca_opt E -79.901038107470
  H      -0.282609     -0.185587      4.755212
  H      -0.720863     -2.485538      4.769415
  H       0.370461      2.408671      2.072241
  H       0.591641      1.269716     -3.031724
  H      -1.096995      0.931873      3.625067
  H      -0.019617      3.062896     -0.264265
  H       0.509319     -1.692872      0.913446
  H      -1.069238      0.704295     -2.825197
  H      -3.309599     -4.329840      1.915230
  H       0.082713     -1.043816     -1.429538
  H      -3.547683     -2.151032      0.757503
  H      -0.635785      4.612530     -3.377777
  H      -1.912311     -4.472639      3.954851
  N      -0.124729      3.721342     -3.376519
  C      -0.802932      2.797423     -2.650424
  C      -2.036303      3.339866     -2.092386
  C      -0.321266      1.408558     -2.446977
  O      -2.326679      4.536353     -2.308881
  C      -0.027589      1.051418     -1.007344
  C       0.088498      2.017600     -0.015424
  C       0.313114      1.657271      1.299421
  C       0.440069      0.315741      1.637469
  C       0.386983     -0.655188      0.643268
  C       0.151234     -0.284785     -0.666237
  O       0.609605     -0.064375      2.959363
  C      -0.602904     -0.039400      3.723430
  C      -1.490769     -1.175415      3.281052
  C      -1.361818     -2.410118      3.905287
  C      -2.022376     -3.533475      3.437067
  C      -2.807036     -3.455729      2.295439
  C      -2.942161     -2.247381      1.645318
  C      -2.306219     -1.107909      2.141669
  N      -2.544667      0.099532      1.433443
  O      -2.697975      0.028909      0.214913
  O      -2.624780      1.163483      2.044163
  C      -4.007672      2.976703     -0.698828
  N      -2.828093      2.514585     -1.386540
  H      -2.520175      1.580774     -1.147816
  H      -4.158904      4.026161     -0.944053
  H      -4.873538      2.395065     -1.014512
  H      -3.878745      2.866673      0.380005
  C       1.062875      3.658868     -4.060643
  O       1.745794      2.645273     -4.135719
  C       1.428339      4.962958     -4.708104
  H       0.656470      5.256493     -5.415136
  H       1.520023      5.741081     -3.954494
  H       2.373906      4.851010     -5.229731
47
Coordinates from ORCA-job /home/esp/scriptDevelopment/drFrankenstein/11_PCY_CHARMM/04_torsion_scanning/torsion_NH1-CT1-CG321-CG2R61/scans_PCY_conformer_1/PCY_conformer_1_opt/orca_opt E -79.901038644680
  H      -0.279723     -0.185405      4.754136
  H      -0.719064     -2.485248      4.769474
  H       0.372481      2.407387      2.070837
  H       0.591562      1.270110     -3.033061
  H      -1.094068      0.932031      3.624087
  H      -0.018487      3.062237     -0.265287
  H       0.508544     -1.694053      0.911200
  H      -1.069384      0.704630     -2.826798
  H      -3.313508     -4.328467      1.919789
  H       0.081309     -1.044279     -1.431440
  H      -3.550927     -2.150100      0.761139
  H      -0.635965      4.613331     -3.375950
  H      -1.913341     -4.471668      3.957336
  N      -0.124223      3.722518     -3.375475
  C      -0.803012      2.797670     -2.650945
  C      -2.036896      3.339489     -2.093372
  C      -0.321365      1.408674     -2.448279
  O      -2.327755      4.535810     -2.309694
  C      -0.027500      1.050936     -1.008811
  C       0.089458      2.016853     -0.016732
  C       0.314524      1.656136      1.297910
  C       0.441019      0.314467      1.635620
  C       0.386913     -0.656218      0.641268
  C       0.150695     -0.285425     -0.668032
  O       0.611098     -0.066117      2.957302
  C      -0.600532     -0.039555      3.722473
  C      -1.489779     -1.175120      3.281495
  C      -1.361106     -2.409641      3.906170
  C      -2.023299     -3.532610      3.439333
  C      -2.809501     -3.454659      2.298781
  C      -2.944292     -2.246504      1.648184
  C      -2.306544     -1.107490      2.143136
  N      -2.544574      0.099940      1.434491
  O      -2.698590      0.028851      0.216176
  O      -2.623900      1.164017      2.044971
  C      -4.009267      2.974157     -0.701685
  N      -2.828690      2.513316     -1.388487
  H      -2.519860      1.579901     -1.149463
  H      -4.163494      4.022443     -0.950005
  H      -4.873457      2.388963     -1.015346
  H      -3.879830      2.867804      0.377479
  C       1.063573      3.660563     -4.059133
  O       1.746146      2.646778     -4.135090
  C       1.429507      4.965344     -4.704979
  H       0.658115      5.259499     -5.412277
  H       1.520522      5.742613     -3.950408
  H       2.375476      4.854110     -5.226034
47
Coordinates from ORCA-job /home/esp/scriptDevelopment/drFrankenstein/11_PCY_CHARMM/04_torsion_scanning/torsion_NH1-CT1-CG321-CG2R61/scans_PCY_conformer_1/PCY_conformer_1_opt/orca_opt E -79.901038898800
  H      -0.278366     -0.184881      4.753347
  H      -0.718975     -2.484570      4.770043
  H       0.373998      2.406614      2.069806
  H       0.591983      1.270549     -3.033884
  H      -1.092484      0.932341      3.623017
  H      -0.017263      3.061722     -0.266150
  H       0.508351     -1.694841      0.909828
  H      -1.068858      0.704573     -2.828092
  H      -3.316315     -4.327474      1.922777
  H       0.080785     -1.044738     -1.432656
  H      -3.552491     -2.149707      0.762787
  H      -0.636416      4.613824     -3.374391
  H      -1.915064     -4.470590      3.959534
  N      -0.124064      3.723345     -3.374681
  C      -0.802971      2.797644     -2.651217
  C      -2.037139      3.338790     -2.093722
  C      -0.321067      1.408623     -2.449179
  O      -2.328433      4.535076     -2.309708
  C      -0.027183      1.050479     -1.009811
  C       0.090411      2.016293     -0.017684
  C       0.315578      1.655396      1.296884
  C       0.441631      0.313636      1.634426
  C       0.387047     -0.656939      0.640005
  C       0.150611     -0.285965     -0.669205
  O       0.611845     -0.067298      2.955975
  C      -0.599352     -0.039430      3.721692
  C      -1.489454     -1.174743      3.281645
  C      -1.361371     -2.408991      3.907004
  C      -2.024622     -3.531723      3.441100
  C      -2.811373     -3.453840      2.300920
  C      -2.945529     -2.245974      1.649619
  C      -2.306634     -1.107233      2.143637
  N      -2.544007      0.100059      1.434394
  O      -2.698176      0.028521      0.216179
  O      -2.622890      1.164318      2.044553
  C      -4.009854      2.972223     -0.702744
  N      -2.828811      2.512184     -1.389160
  H      -2.519498      1.578808     -1.150482
  H      -4.165757      4.019881     -0.952663
  H      -4.873135      2.385072     -1.015199
  H      -3.879930      2.867872      0.376586
  C       1.063581      3.661885     -4.058462
  O       1.745929      2.647957     -4.135429
  C       1.429773      4.967182     -4.703100
  H       0.658616      5.261838     -5.410451
  H       1.520406      5.743791     -3.947805
  H       2.375946      4.856461     -5.223885
