47
Coordinates from ORCA-job /home/esp/scriptDevelopment/drFrankenstein/11_PCY_CHARMM/04_torsion_scanning/torsion_NH1-CT1-CG321-CG2R61/scans_PCY_conformer_1/PCY_conformer_1_opt/orca_opt E -79.901038898800
  H          -0.27836641475880     -0.18488144272436      4.75334723620543
  H          -0.71897506345515     -2.48456970885128      4.77004273790866
  H           0.37399754392688      2.40661407863767      2.06980577134336
  H           0.59198295341642      1.27054943757035     -3.03388381472803
  H          -1.09248396202921      0.93234079807835      3.62301681429808
  H          -0.01726345114752      3.06172227103000     -0.26614981555097
  H           0.50835097680512     -1.69484117462273      0.90982802264424
  H          -1.06885828142552      0.70457300041378     -2.82809158609589
  H          -3.31631457671068     -4.32747405178130      1.92277684429440
  H           0.08078549312780     -1.04473768640967     -1.43265555642255
  H          -3.55249091501886     -2.14970749360281      0.76278733134436
  H          -0.63641565362975      4.61382418997836     -3.37439130096156
  H          -1.91506394456156     -4.47059032703881      3.95953399963210
  N          -0.12406384716624      3.72334510730160     -3.37468125870500
  C          -0.80297133216435      2.79764385030571     -2.65121677965925
  C          -2.03713884142805      3.33878958821637     -2.09372155835008
  C          -0.32106666859028      1.40862304824138     -2.44917908971887
  O          -2.32843272078982      4.53507636384960     -2.30970815237498
  C          -0.02718313121654      1.05047906340890     -1.00981069508014
  C           0.09041104034352      2.01629344120564     -0.01768427376556
  C           0.31557762412076      1.65539579193512      1.29688387169989
  C           0.44163141015850      0.31363590394731      1.63442589509880
  C           0.38704736000454     -0.65693908688923      0.64000543822774
  C           0.15061104488881     -0.28596477148437     -0.66920450436938
  O           0.61184519311304     -0.06729779575757      2.95597549431521
  C          -0.59935190192191     -0.03943039290386      3.72169157798050
  C          -1.48945387381100     -1.17474270985274      3.28164471632215
  C          -1.36137132675766     -2.40899079151975      3.90700418372835
  C          -2.02462163702579     -3.53172256505860      3.44109996102607
  C          -2.81137319569570     -3.45384047516471      2.30091981618662
  C          -2.94552944426016     -2.24597402798305      1.64961946179897
  C          -2.30663356797266     -1.10723344612131      2.14363691918697
  N          -2.54400659696677      0.10005864366123      1.43439370798242
  O          -2.69817555300248      0.02852065712770      0.21617909195780
  O          -2.62289031143907      1.16431809657337      2.04455343175802
  C          -4.00985402620465      2.97222349671713     -0.70274391885819
  N          -2.82881050597244      2.51218406326492     -1.38915951405917
  H          -2.51949809892350      1.57880842147483     -1.15048151566477
  H          -4.16575700028207      4.01988081756609     -0.95266322702893
  H          -4.87313523352939      2.38507216790746     -1.01519945433533
  H          -3.87993027460790      2.86787193363326      0.37658562459169
  C           1.06358088424252      3.66188538756211     -4.05846225638368
  O           1.74592908991420      2.64795733208653     -4.13542888932855
  C           1.42977311191255      4.96718162770063     -4.70310028558427
  H           0.65861575166504      5.26183750382586     -5.41045101198984
  H           1.52040602605099      5.74379123679165     -3.94780490903851
  H           2.37594584877486      4.85646062775322     -5.22388458147833
