45
Coordinates from ORCA-job /home/esp/scriptDevelopment/drFrankenstein/10_C8X_CHARMM/01_termini_capping/geometry_optimisation/orca_opt E -73.264919220040
  N      25.967000     33.489000     16.890000
  C      26.970000     32.957000     17.838000
  C      26.433000     32.810000     19.271000
  O      26.529000     31.682000     19.779000
  C      28.213000     33.845000     17.911000
  S      29.495000     33.293000     19.063000
  N      29.605000     37.190000     21.279000
  C      30.815000     34.538000     18.883000
  N      29.088000     39.504000     22.527000
  C      30.480000     35.889000     19.466000
  C      30.724000     37.060000     18.756000
  C      30.397000     38.282000     19.304000
  C      29.843000     38.314000     20.579000
  C      29.926000     36.016000     20.726000
  C      29.455000     39.588000     21.235000
  C      29.464000     40.792000     20.548000
  C      29.084000     41.943000     21.207000
  C      28.709000     41.869000     22.527000
  C      28.727000     40.639000     23.144000
  H      26.373000     34.247000     16.359000
  H      27.177000     32.069000     17.466000
  H      27.934000     34.738000     18.168000
  H      28.601000     33.899000     17.023000
  H      31.007000     34.642000     17.934000
  H      31.617000     34.196000     19.318000
  H      31.113000     37.025000     17.898000
  H      30.547000     39.083000     18.822000
  H      29.765000     35.237000     21.227000
  H      29.728000     40.821000     19.639000
  H      29.083000     42.772000     20.756000
  H      28.445000     42.642000     23.000000
  H      28.472000     40.586000     24.052000
  Pd     28.204000     37.459000     23.269000
  C      25.300000     33.697000     21.502000
  N      25.824000     33.762000     20.154000
  H      25.787000     34.659000     19.653000
  H      24.745000     32.755000     21.691000
  H      26.157000     33.777000     22.228000
  H      24.661000     34.579000     21.708000
  C      24.642000     33.265000     16.509000
  O      24.167000     32.358000     17.149000
  C      23.809000     33.973000     15.472000
  H      23.486000     33.257000     14.716000
  H      22.935000     34.416000     15.949000
  H      24.403000     34.756000     15.001000
45
Coordinates from ORCA-job /home/esp/scriptDevelopment/drFrankenstein/10_C8X_CHARMM/01_termini_capping/geometry_optimisation/orca_opt E -73.378162463100
  N      25.975616     33.503612     16.912919
  C      26.970664     32.960357     17.852808
  C      26.429796     32.805217     19.278489
  O      26.519482     31.678588     19.788255
  C      28.214179     33.849531     17.920654
  S      29.483903     33.276962     19.078647
  N      29.602199     37.178785     21.272104
  C      30.803237     34.521537     18.883718
  N      29.084498     39.495088     22.522859
  C      30.468411     35.874051     19.461567
  C      30.708290     37.043573     18.743389
  C      30.380845     38.269243     19.292259
  C      29.832254     38.303748     20.571990
  C      29.919156     36.002695     20.727831
  C      29.444486     39.577215     21.228553
  C      29.445544     40.784583     20.540980
  C      29.063915     41.937097     21.205734
  C      28.695414     41.857788     22.534444
  C      28.722076     40.621198     23.150119
  H      26.376178     34.266258     16.378931
  H      27.183131     32.041911     17.471478
  H      27.932021     34.780009     18.189141
  H      28.623795     33.897373     17.000006
  H      30.996878     34.623535     17.897707
  H      31.634018     34.165825     19.334945
  H      31.111656     37.004559     17.841683
  H      30.533909     39.105458     18.785234
  H      29.753285     35.186921     21.260676
  H      29.715613     40.817590     19.589016
  H      29.056607     42.806723     20.734456
  H      28.418650     42.664402     23.034790
  H      28.462061     40.557217     24.104111
  Pd     28.220785     37.453604     23.260553
  C      25.304742     33.720639     21.453503
  N      25.835133     33.773124     20.114568
  H      25.808184     34.662914     19.607852
  H      24.745565     32.787352     21.640356
  H      26.150449     33.796382     22.182697
  H      24.670221     34.602698     21.642132
  C      24.655725     33.264092     16.558433
  O      24.158342     32.348166     17.193227
  C      23.846588     33.994709     15.525095
  H      23.519400     33.290005     14.762570
  H      22.976975     34.443178     16.001693
  H      24.452128     34.774488     15.063830
45
Coordinates from ORCA-job /home/esp/scriptDevelopment/drFrankenstein/10_C8X_CHARMM/01_termini_capping/geometry_optimisation/orca_opt E -73.445981576660
  N      25.990604     33.526346     16.943950
  C      26.973830     32.968552     17.873278
  C      26.423513     32.801856     19.287991
  O      26.502860     31.679410     19.806349
  C      28.215557     33.858685     17.933227
  S      29.464125     33.258589     19.101896
  N      29.598339     37.166231     21.255101
  C      30.781443     34.501957     18.883456
  N      29.083134     39.483277     22.513634
  C      30.448553     35.856160     19.450769
  C      30.682155     37.022202     18.723262
  C      30.356924     38.251670     19.271528
  C      29.817167     38.293538     20.556538
  C      29.907556     35.988751     20.723758
  C      29.431634     39.565177     21.216603
  C      29.420055     40.780228     20.537411
  C      29.038598     41.928516     21.215584
  C      28.682660     41.837382     22.552276
  C      28.721264     40.592684     23.159171
  H      26.376735     34.294611     16.403620
  H      27.194103     32.018567     17.488151
  H      27.935888     34.823968     18.210099
  H      28.649619     33.895134     16.986100
  H      30.974460     34.595245     17.863340
  H      31.637368     34.132857     19.350135
  H      31.093290     36.977743     17.785251
  H      30.511778     39.114447     18.740394
  H      29.739965     35.146186     21.286645
  H      29.688901     40.825039     19.549171
  H      29.021340     42.833408     20.733496
  H      28.397203     42.666942     23.081537
  H      28.464367     40.509756     24.151819
  Pd     28.251057     37.448789     23.241102
  C      25.307131     33.767009     21.370027
  N      25.851583     33.796677     20.042596
  H      25.840336     34.674215     19.523926
  H      24.741502     32.845724     21.554138
  H      26.133281     33.838270     22.107282
  H      24.676499     34.648609     21.528218
  C      24.684637     33.254061     16.635970
  O      24.172204     32.329691     17.267324
  C      23.901452     34.008854     15.608388
  H      23.568927     33.315951     14.839813
  H      23.036188     34.461178     16.085742
  H      24.516215     34.785856     15.155935
45
Coordinates from ORCA-job /home/esp/scriptDevelopment/drFrankenstein/10_C8X_CHARMM/01_termini_capping/geometry_optimisation/orca_opt E -73.493760353500
  N      26.016074     33.567690     16.978457
  C      26.985864     32.988501     17.892213
  C      26.412713     32.807136     19.293839
  O      26.484477     31.701701     19.843855
  C      28.223011     33.879467     17.941973
  S      29.426361     33.239411     19.140273
  N      29.584165     37.151057     21.222500
  C      30.745998     34.475443     18.887636
  N      29.077758     39.459946     22.496708
  C      30.413434     35.831493     19.432085
  C      30.641796     36.992421     18.695491
  C      30.324360     38.226731     19.241862
  C      29.791365     38.283674     20.529636
  C      29.878918     35.970504     20.711642
  C      29.413459     39.548225     21.197685
  C      29.389950     40.780197     20.546602
  C      29.012152     41.913869     21.253574
  C      28.672702     41.797668     22.595984
  C      28.719593     40.538441     23.179119
  H      26.364428     34.340875     16.420427
  H      27.223702     31.997472     17.520593
  H      27.952314     34.885166     18.223424
  H      28.696799     33.891482     16.972547
  H      30.945892     34.544068     17.831137
  H      31.621286     34.087868     19.382933
  H      31.061034     36.940065     17.717820
  H      30.488304     39.115899     18.682355
  H      29.708859     35.100459     21.311839
  H      29.653189     40.853872     19.518922
  H      28.982779     42.862851     20.771053
  H      28.382594     42.646389     23.167734
  H      28.474056     40.417517     24.214753
  Pd     28.326599     37.448817     23.191617
  C      25.308442     33.873598     21.221444
  N      25.878420     33.857241     19.905264
  H      25.881872     34.711437     19.359367
  H      24.738558     32.964335     21.404321
  H      26.102306     33.943853     21.973839
  H      24.670725     34.747751     21.323521
  C      24.737832     33.216849     16.762669
  O      24.238891     32.285144     17.406387
  C      23.963908     33.986957     15.742721
  H      23.620005     33.297922     14.977252
  H      23.099821     34.432916     16.226227
  H      24.569239     34.765623     15.284700
45
Coordinates from ORCA-job /home/esp/scriptDevelopment/drFrankenstein/10_C8X_CHARMM/01_termini_capping/geometry_optimisation/orca_opt E -73.514762878100
  N      26.033638     33.620448     16.993690
  C      27.002098     33.021983     17.892831
  C      26.411304     32.832704     19.295877
  O      26.490651     31.747878     19.873777
  C      28.244657     33.903111     17.937855
  S      29.407663     33.231015     19.165116
  N      29.562794     37.149695     21.180096
  C      30.744821     34.452274     18.904642
  N      29.045871     39.415105     22.451277
  C      30.409051     35.812810     19.420118
  C      30.653920     36.967980     18.680568
  C      30.341086     38.208786     19.215550
  C      29.784137     38.282961     20.491284
  C      29.850821     35.962708     20.692135
  C      29.404105     39.534481     21.162728
  C      29.388598     40.789164     20.556912
  C      28.994318     41.895256     21.297718
  C      28.632642     41.735805     22.630665
  C      28.669052     40.456110     23.173074
  H      26.348779     34.387424     16.412515
  H      27.249321     32.004605     17.537405
  H      27.989599     34.932583     18.221858
  H      28.747043     33.893225     16.961132
  H      30.972423     34.491741     17.833470
  H      31.614130     34.049800     19.439304
  H      31.094195     36.904898     17.688937
  H      30.530944     39.108732     18.641220
  H      29.661479     35.080126     21.313240
  H      29.669610     40.905314     19.515988
  H      28.965282     42.879079     20.837366
  H      28.326547     42.580830     23.238366
  H      28.411017     40.284524     24.224019
  Pd     28.418635     37.462214     23.047801
  C      25.304422     33.969498     21.136347
  N      25.893751     33.931505     19.821741
  H      25.884754     34.770832     19.260157
  H      24.743201     33.055269     21.312603
  H      26.079177     34.040746     21.899639
  H      24.645460     34.827683     21.206962
  C      24.771533     33.197871     16.859257
  O      24.312265     32.269708     17.533141
  C      23.963450     33.952705     15.843684
  H      23.604439     33.248919     15.097937
  H      23.098041     34.384185     16.339451
  H      24.535273     34.735710     15.356544
45
Coordinates from ORCA-job /home/esp/scriptDevelopment/drFrankenstein/10_C8X_CHARMM/01_termini_capping/geometry_optimisation/orca_opt E -73.526982558540
  N      26.044272     33.668656     16.998873
  C      27.014689     33.060696     17.891046
  C      26.420547     32.890770     19.306181
  O      26.511259     31.833328     19.915885
  C      28.272305     33.918622     17.923507
  S      29.405783     33.230467     19.178867
  N      29.553027     37.147364     21.135376
  C      30.770782     34.430334     18.916981
  N      28.996024     39.352336     22.397167
  C      30.435343     35.795336     19.407165
  C      30.702071     36.947460     18.669559
  C      30.388278     38.194086     19.190901
  C      29.796428     38.281417     20.448789
  C      29.843025     35.953616     20.665087
  C      29.400353     39.517471     21.124708
  C      29.396899     40.795010     20.570470
  C      28.965289     41.865611     21.341652
  C      28.556522     41.655167     22.653905
  C      28.579835     40.356188     23.151072
  H      26.343972     34.409862     16.382550
  H      27.255909     32.025041     17.558713
  H      28.038651     34.961573     18.200301
  H      28.787486     33.881454     16.946985
  H      31.028751     34.441423     17.845959
  H      31.620841     34.015892     19.486474
  H      31.164259     36.874933     17.679688
  H      30.603878     39.095684     18.612860
  H      29.628659     35.065227     21.290876
  H      29.712100     40.957498     19.537210
  H      28.939758     42.873390     20.915238
  H      28.220439     42.481139     23.285469
  H      28.291714     40.133036     24.196594
  Pd     28.531997     37.466177     22.888507
  C      25.302347     34.071275     21.099262
  N      25.909095     34.022386     19.785302
  H      25.869584     34.847169     19.209749
  H      24.754472     33.146585     21.271236
  H      26.066106     34.148546     21.871051
  H      24.619812     34.911704     21.149935
  C      24.785618     33.204367     16.930136
  O      24.367166     32.298326     17.647805
  C      23.929003     33.918666     15.913034
  H      23.552180     33.184975     15.204477
  H      23.066202     34.344483     16.419972
  H      24.463267     34.695254     15.379425
45
Coordinates from ORCA-job /home/esp/scriptDevelopment/drFrankenstein/10_C8X_CHARMM/01_termini_capping/geometry_optimisation/orca_opt E -73.532559099390
  N      26.044907     33.664470     16.993792
  C      27.011972     33.077231     17.904234
  C      26.425693     32.981298     19.333688
  O      26.529529     31.965826     20.001694
  C      28.287247     33.906926     17.904778
  S      29.406930     33.244873     19.193933
  N      29.568495     37.144303     21.114744
  C      30.793627     34.424737     18.907842
  N      28.970130     39.281703     22.372026
  C      30.463548     35.791263     19.388868
  C      30.722966     36.944326     18.648684
  C      30.403303     38.191955     19.164228
  C      29.807638     38.280925     20.419463
  C      29.867716     35.949362     20.645526
  C      29.397815     39.499796     21.109580
  C      29.390605     40.795669     20.602099
  C      28.930619     41.830205     21.405241
  C      28.498967     41.569101     22.700879
  C      28.525975     40.255324     23.155339
  H      26.354975     34.350726     16.323575
  H      27.234809     32.026580     17.620189
  H      28.073005     34.958017     18.145051
  H      28.800495     33.824963     16.935247
  H      31.056249     34.415569     17.842636
  H      31.631099     34.005655     19.484857
  H      31.180440     36.868796     17.661459
  H      30.615278     39.090117     18.586274
  H      29.652259     35.059006     21.266459
  H      29.721602     40.998092     19.584883
  H      28.899123     42.848699     21.016958
  H      28.142475     42.366582     23.350724
  H      28.225670     39.990002     24.186422
  Pd     28.687114     37.438771     22.807706
  C      25.307765     34.233940     21.081834
  N      25.925300     34.140721     19.771875
  H      25.849102     34.934434     19.158261
  H      24.764353     33.309904     21.280934
  H      26.068398     34.336626     21.854990
  H      24.615577     35.068102     21.099677
  C      24.781164     33.193890     16.956862
  O      24.376826     32.335783     17.730742
  C      23.904905     33.840474     15.908861
  H      23.523911     33.062477     15.250884
  H      23.041205     34.284770     16.398664
  H      24.425219     34.588015     15.323339
45
Coordinates from ORCA-job /home/esp/scriptDevelopment/drFrankenstein/10_C8X_CHARMM/01_termini_capping/geometry_optimisation/orca_opt E -73.535718200510
  N      26.052857     33.662925     17.002824
  C      27.015860     33.080860     17.920251
  C      26.455625     33.056600     19.359686
  O      26.564720     32.068310     20.069261
  C      28.315294     33.871469     17.881316
  S      29.439740     33.224739     19.174597
  N      29.574046     37.109022     21.114415
  C      30.825627     34.410335     18.887921
  N      28.922907     39.222567     22.366867
  C      30.484093     35.772238     19.375984
  C      30.715627     36.929830     18.633542
  C      30.374471     38.171469     19.149444
  C      29.788155     38.249590     20.409431
  C      29.896005     35.920097     20.636824
  C      29.360485     39.460067     21.106117
  C      29.348328     40.759074     20.607797
  C      28.874265     41.784016     21.414906
  C      28.434101     41.509265     22.704191
  C      28.467731     40.194268     23.150862
  H      26.388623     34.289238     16.286988
  H      27.199544     32.023150     17.666997
  H      28.130505     34.926274     18.091243
  H      28.807611     33.750128     16.914188
  H      31.087212     34.404443     17.830542
  H      31.658870     33.996751     19.460209
  H      31.162481     36.861230     17.650736
  H      30.561755     39.066872     18.574432
  H      29.697593     35.030144     21.249116
  H      29.687180     40.968260     19.603586
  H      28.840284     42.797342     21.038067
  H      28.068473     42.293647     23.350687
  H      28.161513     39.924148     24.169871
  Pd     28.746772     37.366410     22.837340
  C      25.354973     34.367036     21.087705
  N      25.967519     34.230352     19.780370
  H      25.854248     34.990636     19.128867
  H      24.811418     33.450706     21.324054
  H      26.122189     34.497460     21.852097
  H      24.665069     35.203923     21.082859
  C      24.771246     33.236453     16.979270
  O      24.347732     32.431946     17.799053
  C      23.904221     33.852703     15.909572
  H      23.501545     33.054122     15.290309
  H      23.055350     34.340810     16.382937
  H      24.442136     34.559075     15.288669
45
Coordinates from ORCA-job /home/esp/scriptDevelopment/drFrankenstein/10_C8X_CHARMM/01_termini_capping/geometry_optimisation/orca_opt E -73.537593788680
  N      26.063871     33.645676     17.009990
  C      27.013226     33.071024     17.943771
  C      26.474906     33.148764     19.383351
  O      26.558829     32.194559     20.145652
  C      28.343331     33.806781     17.849254
  S      29.471680     33.190086     19.153648
  N      29.588813     37.071237     21.127242
  C      30.842222     34.397769     18.860719
  N      28.881066     39.153880     22.377692
  C      30.490492     35.752085     19.365190
  C      30.673690     36.913459     18.614963
  C      30.309153     38.146831     19.134326
  C      29.756938     38.213415     20.408453
  C      29.931289     35.889525     20.640052
  C      29.311620     39.411861     21.115636
  C      29.281951     40.712696     20.625424
  C      28.800363     41.727608     21.440970
  C      28.366779     41.436541     22.728408
  C      28.420553     40.120492     23.166739
  H      26.428670     34.176642     16.232606
  H      27.146612     32.000760     17.741691
  H      28.200039     34.871154     18.009189
  H      28.810942     33.620080     16.886459
  H      31.087963     34.401745     17.805297
  H      31.681674     33.989988     19.417366
  H      31.096607     36.852364     17.628108
  H      30.452441     39.040638     18.555532
  H      29.760375     34.999434     21.248659
  H      29.619090     40.928996     19.628686
  H      28.758536     42.738108     21.075686
  H      27.993683     42.207172     23.377087
  H      28.113785     39.842190     24.175706
  Pd     28.847172     37.293531     22.891281
  C      25.440037     34.569014     21.062230
  N      26.048600     34.357449     19.764936
  H      25.922564     35.075883     19.068080
  H      24.855086     33.688514     21.335262
  H      26.213420     34.694844     21.821044
  H      24.792252     35.438004     21.026095
  C      24.765282     33.277149     17.013987
  O      24.316828     32.551917     17.895248
  C      23.917305     33.845823     15.908636
  H      23.486619     33.020355     15.346191
  H      23.088851     34.396184     16.348162
  H      24.480795     34.487771     15.241295
45
Coordinates from ORCA-job /home/esp/scriptDevelopment/drFrankenstein/10_C8X_CHARMM/01_termini_capping/geometry_optimisation/orca_opt E -73.538965325430
  N      26.079341     33.620332     17.017133
  C      27.019872     33.064795     17.972062
  C      26.501424     33.239049     19.408308
  O      26.560045     32.324853     20.222601
  C      28.369397     33.755866     17.827502
  S      29.496420     33.171064     19.146965
  N      29.601632     37.032664     21.129591
  C      30.856893     34.386571     18.835328
  N      28.855807     39.087687     22.392432
  C      30.493102     35.733909     19.347415
  C      30.634526     36.898723     18.593172
  C      30.251618     38.123574     19.120602
  C      29.728429     38.177598     20.407091
  C      29.958917     35.859430     20.633564
  C      29.269747     39.363261     21.128046
  C      29.216700     40.666576     20.647683
  C      28.731466     41.669929     21.475741
  C      28.314367     41.361851     22.764669
  C      28.392134     40.043716     23.192309
  H      26.456342     34.066461     16.193147
  H      27.118379     31.982577     17.824734
  H      28.256119     34.829267     17.939151
  H      28.820108     33.511215     16.870254
  H      31.088177     34.393237     17.777493
  H      31.704829     33.984586     19.381814
  H      31.038908     36.846342     17.599066
  H      30.359053     39.020009     18.539655
  H      29.814016     34.965820     21.241485
  H      29.543190     40.893209     19.650626
  H      28.675916     42.682273     21.120324
  H      27.936702     42.121216     23.422567
  H      28.092764     39.753388     24.198337
  Pd     28.916728     37.228746     22.918616
  C      25.503426     34.776475     21.004271
  N      26.110759     34.479189     19.723433
  H      25.980471     35.149666     18.980501
  H      24.890187     33.930841     21.321945
  H      26.279613     34.918434     21.758331
  H      24.885361     35.663490     20.920266
  C      24.769295     33.299402     17.056976
  O      24.305569     32.657056     17.994754
  C      23.929270     33.824054     15.925651
  H      23.466470     32.979162     15.420435
  H      23.124561     34.429812     16.335334
  H      24.507948     34.402625     15.214621
