47
Coordinates from ORCA-job /home/esp/scriptDevelopment/drFrankenstein/11_PCY_CHARMM/04_torsion_scanning/torsion_NH1-CT1-CG321-CG2R61/scans_PCY_conformer_24/PCY_conformer_24_forwards/orca_scan E -79.888353101760
  H           0.66881019042161     -1.28951821904998      1.53198500233064
  H           0.60643992646609     -3.00081714289608      4.44137011249177
  H          -3.07577206591773      0.70596571703193      1.11868211716936
  H          -1.58874361516327      5.02235441352529     -0.35139160339912
  H           0.54423398256321     -0.96946710355262      3.29056944142264
  H          -2.97874932538991      2.83291016352482     -0.13122881689743
  H           1.12909841618065      0.94798320882534      1.82505299019961
  H           0.15735239617122      4.80974717794820     -0.56550897535516
  H          -1.93747146170996     -6.25679113851115      3.35452196691512
  H           1.22436143543142      3.03816332876515      0.58181178924551
  H          -2.66156645299635     -4.99555806970284      1.34339519721668
  H          -1.99152182529156      3.10249389045334     -3.58465639907889
  H          -0.26992638488587     -5.25244813702805      4.88114855827546
  N          -1.49263660344953      2.93233336691137     -2.70507723362361
  C          -1.05687486348203      4.11491624832634     -2.17115049508798
  C          -1.23516487166229      5.22574989099307     -3.09073604598480
  C          -0.81674985089784      4.33121787792930     -0.70866046637244
  O          -1.66321261044425      5.01376478557345     -4.24599484701499
  C          -0.86371699775780      3.07824219772900      0.12031347407427
  C          -2.07780154459855      2.42191897240505      0.30006184213216
  C          -2.14317345617543      1.23546850624216      0.99645767986259
  C          -0.98434858628263      0.67725665326734      1.53175276110365
  C           0.22287184309677      1.34951368549366      1.40096262508043
  C           0.27332921030748      2.54175271472136      0.70010916396280
  O          -1.14333514059594     -0.51875174491729      2.17515040117425
  C           0.00460008308057     -1.32622522340787      2.40545681271784
  C          -0.47964410357314     -2.73297895307116      2.62874113695625
  C          -0.09296742841599     -3.44809032964773      3.75307680110283
  C          -0.59547348031844     -4.71451076789522      4.00544637750340
  C          -1.52980925778305     -5.28030629429561      3.15120202802365
  C          -1.93969986188655     -4.58379829195751      2.03173623610770
  C          -1.40017454510317     -3.32900554759035      1.75958737912652
  N          -1.82049171056649     -2.69172190010179      0.55426039999694
  O          -2.97931050029762     -2.86107761993809      0.19597487850842
  O          -1.01047195729799     -2.04729714211749     -0.09612075677937
  C          -1.01488700396765      7.63507556767522     -3.49588356385640
  N          -0.92324907751411      6.46607688069030     -2.65597800789084
  H          -0.53730302422063      6.58854898092611     -1.73469825584247
  H          -1.66763534867105      8.37761467651413     -3.03718847356205
  H          -0.02844436253020      8.07156806888291     -3.65646042145166
  H          -1.43175982483625      7.32658249995530     -4.45299085986535
  C          -1.01577126208054      1.65222293560965     -2.51837019214831
  O          -0.01165782740262      1.40675344173056     -1.87296990268770
  C          -1.84184468054915      0.60973230115003     -3.21648095706181
  H          -2.89970361963957      0.84004309105800     -3.13963661789275
  H          -1.56313663046077      0.56794214742506     -4.26734205978408
  H          -1.63787631990304     -0.35753976560269     -2.76429222106331
