47
Coordinates from ORCA-job /home/esp/scriptDevelopment/drFrankenstein/11_PCY_CHARMM/04_torsion_scanning/torsion_NH1-CT1-CG321-CG2R61/scans_PCY_conformer_24/PCY_conformer_24_forwards/orca_scan E -79.896061309110
  H           0.52102232897724     -1.23964649880411      1.07474754352215
  H           1.19496944544267     -2.00460972558916      4.31995803642553
  H          -3.53578115742103      0.39268151646610      1.45441708625154
  H          -3.35414157716645      4.17070578523536     -1.24025976247226
  H           0.64030922725082     -0.47681502731931      2.69206780159126
  H          -4.04532570446868      2.43972930220429      0.17692802784303
  H           0.63301919589578      0.98916597875665      0.73382492336776
  H          -2.02422603685466      5.01359801137456     -0.43210491849302
  H          -0.61694536315132     -5.86599795641171      4.54697039035838
  H           0.12535241634071      3.00840811392873     -0.52223788547626
  H          -1.81055011293613     -5.40810827723309      2.42127927163459
  H          -1.06870456041500      3.22267476572925     -4.00742088538568
  H           0.91253152354552     -4.15303331921440      5.47148192190569
  N          -1.75737069904224      3.15996871549370     -3.25067120901926
  C          -1.54380598733186      4.13838531598580     -2.32682561235728
  C          -0.43462404276708      4.99980110078370     -2.70103353991619
  C          -2.28027032370670      4.14399558889112     -1.03588912095109
  O           0.14879589934328      4.80883160600075     -3.79047236438315
  C          -1.99337382634646      2.87680726107668     -0.25589020632153
  C          -3.02045624761795      2.13073943961781      0.30834169276118
  C          -2.74432723415122      0.98238489052610      1.01907350077812
  C          -1.42848052482298      0.54852387076698      1.18052358882249
  C          -0.39538616423898      1.29273038692464      0.62497918703388
  C          -0.68651440660619      2.44348863322395     -0.08749875112710
  O          -1.26882731383132     -0.59741392219589      1.90266353584555
  C           0.03839336945022     -1.13597508155385      2.05509396497354
  C          -0.10546869038939     -2.48534660141871      2.70333463168429
  C           0.54931937190703     -2.75745871058939      3.89629239403741
  C           0.38364664389669     -3.96745277646929      4.55059527000918
  C          -0.47262625761608     -4.92893986347721      4.03499818489326
  C          -1.14247330969291     -4.68000202997233      2.85484379628390
  C          -0.94896225850765     -3.47462654033006      2.18022439749675
  N          -1.63058346679541     -3.31757716276054      0.93996776212256
  O          -2.67543857274595     -3.94049181696009      0.77864338768999
  O          -1.14233904624970     -2.61108825553853      0.06722179612422
  C           1.01049571338771      6.90015704009346     -2.14445550749844
  N          -0.06958249826414      5.98855505972193     -1.85930182618981
  H          -0.55542638044248      6.10918211202974     -0.98582271183206
  H           0.63989711685726      7.92426315133896     -2.19558928381414
  H           1.77735295314490      6.83210454493823     -1.37264479181312
  H           1.43761064377077      6.62243016025220     -3.10651906089827
  C          -2.78038378698381      2.25719038841653     -3.37286916711879
  O          -3.72807494816776      2.21080029155715     -2.60194292413569
  C          -2.61297477302248      1.34510313024440     -4.55554650603449
  H          -2.54416543943455      1.92470040582286     -5.47250409264988
  H          -1.70213670127241      0.76223517090612     -4.44257937409343
  H          -3.46394843674960      0.67325182752988     -4.61238259147533
