47
Coordinates from ORCA-job /home/esp/scriptDevelopment/drFrankenstein/11_PCY_CHARMM/04_torsion_scanning/torsion_NH1-CT1-CG321-CG2R61/scans_PCY_conformer_24/PCY_conformer_24_forwards/orca_scan E -79.899555289510
  H          -0.02958977046162      0.39491186009320      3.11427292908223
  H          -0.44649604011239     -2.16065386561579      5.30822530049857
  H          -2.87129452924371     -0.44618620986661      0.00677890641395
  H          -3.42428137401101      4.28857643196498     -1.39622821349785
  H          -1.24720294114226     -0.24056296638586      4.26282923945835
  H          -3.19411370421130      1.44879463942964     -1.54086845594268
  H          -1.12540367214953      2.20230839232041      2.86886003866725
  H          -1.85836099357055      4.89290642086121     -0.84181424730699
  H           1.44811696422417     -5.30077803256162      3.11648708477590
  H          -1.41057702199093      4.06140730645755      1.32547733596064
  H           1.35879108075177     -3.90061849447469      1.07014835578621
  H          -1.89310350797051      3.21915039133651     -4.45873420852089
  H           0.56266715154269     -4.39874255326154      5.24351045179671
  N          -2.48631554827088      3.58120056829929     -3.70335132264036
  C          -1.78906270610793      3.60744194153256     -2.53710802136679
  C          -0.44447036065155      3.07237820104486     -2.69197786170157
  C          -2.37999984030028      4.01542143137294     -1.23272063252798
  O          -0.06208900452593      2.68461298682021     -3.81617958454354
  C          -2.28838913947507      2.88501003542857     -0.23408288237998
  C          -2.72880990423917      1.61139603663247     -0.58039583727265
  C          -2.55731198262351      0.54953867526919      0.27990755076266
  C          -1.93708278135967      0.73787252574261      1.51545112521617
  C          -1.55797424725396      2.01767357936088      1.89877680917448
  C          -1.72562250555634      3.07436127973728      1.02026346924651
  O          -1.76293757438764     -0.38495655840551      2.27077258128392
  C          -0.76780360553686     -0.39423171291037      3.29036323102433
  C          -0.08484961303074     -1.73615571728849      3.25326307269100
  C          -0.03317126516301     -2.53580612443341      4.38554358445803
  C           0.52856023416365     -3.80198546917379      4.34634439148841
  C           1.02549813831952     -4.31035092417286      3.15557358229859
  C           0.97652968872791     -3.53873841409566      2.01221308378320
  C           0.44478760617229     -2.25149863409374      2.06321515135939
  N           0.47489455647884     -1.49601612865190      0.85575011189718
  O           0.36669761857465     -2.10583099864717     -0.20333603753932
  O           0.64586991554328     -0.28348669978458      0.90491311799840
  C           1.62464378488480      2.37083794845786     -1.58589525955213
  N           0.35552811547501      3.05656231350851     -1.60520885365125
  H          -0.05155531105007      3.26407166351240     -0.70587997381518
  H           2.39760765975234      3.03131765230149     -1.19538201324644
  H           1.56225540529450      1.47816345302320     -0.95904681876042
  H           1.87005746715416      2.08173272465533     -2.60607319758294
  C          -3.77902593678447      3.91978822371154     -4.00474091380290
  O          -4.57393389837263      4.35452296126132     -3.17966739017686
  C          -4.11504617093526      3.70259993767001     -5.45254056418233
  H          -3.46906532698286      4.31312486460509     -6.07853423793867
  H          -3.96750937623974      2.65886375166754     -5.71845080696155
  H          -5.15103573334818      3.97806130574500     -5.62471317021081
