47
Coordinates from ORCA-job /home/esp/scriptDevelopment/drFrankenstein/11_PCY_CHARMM/04_torsion_scanning/torsion_NH1-CT1-CG321-CG2R61/scans_PCY_conformer_24/PCY_conformer_24_forwards/orca_scan E -79.893091706790
  H           0.29060097575213     -1.59365439388245      0.81556405628040
  H           1.34132790564010     -2.53791231610915      3.91140910315648
  H          -3.30906176280186      0.70240866187176      1.84300423610239
  H          -2.91181513125805      4.47339516333513     -0.83443664854953
  H           0.79752715009960     -0.89413413323878      2.38580356160701
  H          -3.65668122825319      2.83431131708332      0.65792976814690
  H           0.73181977451979      0.60019967033960      0.46171819248947
  H          -1.32659113860702      5.01813030020354     -0.26104311747211
  H          -1.07467320900771     -6.01630452394783      4.46940467215638
  H           0.38757572442513      2.71023464464664     -0.69708114886650
  H          -2.49947564535338     -5.30717943770777      2.56615860148709
  H          -0.69425637674492      3.22568353730859     -3.80685506429543
  H           0.86986405761727     -4.62605475448514      5.11197269288625
  N          -1.30269062690836      3.09704601969187     -2.99185246058184
  C          -1.32402490348964      4.22525268423487     -2.22631723413246
  C          -0.60667122113612      5.32074456378474     -2.85719388827928
  C          -1.84099337571462      4.24038805880864     -0.82932960333448
  O          -0.03394464027894      5.13383964427606     -3.95235594497715
  C          -1.65834426626198      2.92462680585580     -0.11201509193198
  C          -2.69168650190061      2.35343201865637      0.62086345646290
  C          -2.50784770421928      1.15965758118077      1.28371714972221
  C          -1.27875997804426      0.50305518908444      1.22963318982198
  C          -0.23422458300682      1.07529609459275      0.51577128926700
  C          -0.43296957491972      2.27595763254308     -0.14426129896795
  O          -1.20666732155740     -0.67400139336982      1.91716869953464
  C          -0.00286970364911     -1.42870952187724      1.86031791117362
  C          -0.27116783465715     -2.74540711343140      2.53563829933667
  C           0.51080300670925     -3.15461428820404      3.60648191931486
  C           0.23931085381361     -4.32918874457254      4.28949481590841
  C          -0.84936292511960     -5.11020096397167      3.93157212377570
  C          -1.64838664145794     -4.72060175182411      2.87608183291807
  C          -1.35245956505423     -3.55650798923961      2.16810366450030
  N          -2.18760699523798     -3.25163563291430      1.05491780465594
  O          -3.35079169650813     -3.63870255137914      1.09129719486302
  O          -1.71599239458446     -2.66199970061596      0.09178196752636
  C           0.05778218560758      7.67901659901885     -2.79480924200275
  N          -0.58987531028956      6.51847231372076     -2.23412872006881
  H          -1.14448729290742      6.65756360083611     -1.40541689219397
  H          -0.67636808631796      8.44178187171877     -3.05711938679765
  H           0.76808859909038      8.09274618675266     -2.07946102345029
  H           0.58605179175060      7.36563158117970     -3.69352905119348
  C          -2.12003307782560      1.99524796424409     -2.96090833692250
  O          -3.08236889575151      1.90633388501073     -2.21433365260144
  C          -1.71462190797535      0.93907535471949     -3.94956048870411
  H          -1.87735663425606      1.29849049638979     -4.96303658271602
  H          -0.66220131358356      0.69787522948849     -3.82921038409149
  H          -2.31440256038588      0.04892454019345     -3.78554094096286
