47
Coordinates from ORCA-job /home/esp/scriptDevelopment/drFrankenstein/11_PCY_CHARMM/04_torsion_scanning/torsion_NH1-CT1-CG321-CG2R61/scans_PCY_conformer_24/PCY_conformer_24_forwards/orca_scan E -79.898588663310
  H           0.02260911161278      0.41335699602521      3.09948895123581
  H          -0.35510178419167     -1.95911462905444      5.49325750496865
  H          -2.65294179954206     -0.77297744989857     -0.02404968710812
  H          -3.77455806457853      3.76687168598616     -1.54999413584684
  H          -1.20372193060344     -0.18764342741903      4.25826102765445
  H          -3.14817285623348      1.03899515277714     -1.62807274413634
  H          -1.28295902105935      2.12080627865628      2.80389575830086
  H          -2.39528471906392      4.65139631129967     -0.93351790963058
  H           1.78893770170159     -5.17277452990482      3.66946690635307
  H          -1.74965720189458      3.90350022102387      1.21077981866606
  H           1.71744320966733     -3.96560782710617      1.50368647253902
  H          -1.89959678279932      3.70171766786502     -4.59755434712892
  H           0.76745271598359     -4.13557924996617      5.67093180683444
  N          -2.52776956681412      3.93268961852049     -3.81918743207616
  C          -2.00951930320140      3.47159270312553     -2.64850556662858
  C          -0.70463235499552      2.85347417012435     -2.85076312829241
  C          -2.70263775855467      3.68391456057153     -1.34823476882483
  O          -0.29589059573892      2.66872606212682     -4.01757160396603
  C          -2.45013166615969      2.59950411085845     -0.33612933077518
  C          -2.73161321299947      1.27373099694703     -0.66027907788635
  C          -2.45928444313830      0.25807542058459      0.22844993677067
  C          -1.89902089504021      0.54502138945108      1.47397685090314
  C          -1.67134738819456      1.86780932599678      1.83063312100158
  C          -1.94361760833583      2.88037239634662      0.92537157842760
  O          -1.62847022193953     -0.53156393982766      2.26591891628035
  C          -0.67993844195147     -0.39803507700877      3.31936350466673
  C           0.07101439739320     -1.69878593033726      3.42342993323252
  C           0.11544471571066     -2.39149814551618      4.62453774276743
  C           0.74158548315271     -3.62370867111950      4.72247575659306
  C           1.31476207004033     -4.20748923001158      3.60247871736856
  C           1.27623283017162     -3.54357981015626      2.39354217119734
  C           0.67692486695453     -2.28758941750650      2.30501227183149
  N           0.72370340734060     -1.64425801921392      1.03645394435653
  O           0.74685563555330     -2.35371566799849      0.03354181602075
  O           0.77868653280317     -0.42031116912885      0.97610911661572
  C           1.29278509752089      1.84528809824738     -1.84887393219312
  N           0.04134683246036      2.55666585184260     -1.77014570238638
  H          -0.35559791772056      2.68022568367982     -0.85080312195774
  H           2.10282029018502      2.46326547867112     -1.46084630392924
  H           1.23556490138594      0.92645225915751     -1.26336106755613
  H           1.48616941929692      1.60790446897097     -2.89335040532045
  C          -3.72216103160471      4.53644253438414     -4.11065469679397
  O          -4.56003527529705      4.81930026941744     -3.26269025047225
  C          -3.88748052728772      4.82191314398616     -5.57593570899230
  H          -3.08154718125385      5.46360643121527     -5.92278482732930
  H          -3.85800118055827      3.89427992231944     -6.14214012712496
  H          -4.84062848818227      5.31534298099572     -5.73960774822960
