47
Coordinates from ORCA-job /home/esp/scriptDevelopment/drFrankenstein/11_PCY_CHARMM/04_torsion_scanning/torsion_NH1-CT1-CG321-CG2R61/scans_PCY_conformer_24/PCY_conformer_24_forwards/orca_scan E -79.896267516230
  H          -0.18511841161342      0.65169712854706      3.25750689738675
  H          -0.06924838802366     -1.84337362167038      5.57430107793421
  H          -2.97187939914835     -1.05875784435172      0.43595209663307
  H          -3.99940589660649      2.84488802802540     -2.04769914065901
  H          -1.19309066613530     -0.12698359896805      4.51262150895318
  H          -3.53991494235703      0.46857980597120     -1.41920002109450
  H          -1.39827879056832      2.23568225617715      2.65441535516992
  H          -3.20371664419821      4.14602568365311     -1.20945751405664
  H           2.27520780309654     -4.70287619875050      3.43524759643541
  H          -1.92611051670322      3.73334653380061      0.80781014925757
  H           1.89580513782479     -3.42110996257410      1.34539973754680
  H          -1.54748442428229      4.01767724770638     -4.43420220146075
  H           1.30563816210350     -3.87706841669832      5.55723389311540
  N          -2.30954852213178      4.06577087951063     -3.74648889382495
  C          -2.04786754299833      3.23088397748954     -2.70177706424441
  C          -0.76808174676819      2.55863584998286     -2.88962043153727
  C          -3.04296435830666      3.13253309708013     -1.59521061363040
  O          -0.13694466575669      2.77027049050699     -3.95005841248028
  C          -2.73277264177567      2.20632373160196     -0.45528980587861
  C          -3.05937160991156      0.85362794548151     -0.53306361641942
  C          -2.74576099864610     -0.00565497511285      0.49774382007602
  C          -2.10450713335796      0.47076791184792      1.64208706485734
  C          -1.84251021699863      1.83067312568531      1.75949607498964
  C          -2.15065541821513      2.68195578278182      0.71309815306384
  O          -1.80766409002065     -0.47004506228474      2.58461239993261
  C          -0.75406478467422     -0.24512500755947      3.51705197297717
  C           0.15717060733017     -1.44694505909355      3.49502461940153
  C           0.37717081535575     -2.17985507095231      4.65203543719301
  C           1.14607109699212     -3.33273617082001      4.64047737232023
  C           1.69071329085666     -3.79778980146178      3.45284602670284
  C           1.48109520418001     -3.09216230617548      2.28580151454011
  C           0.73711883555602     -1.91312239745889      2.30649478833097
  N           0.61151321470909     -1.21235968935819      1.07530574675511
  O           0.63730447633347     -1.86384979528671      0.03242118588325
  O           0.51507605231815      0.01129468008756      1.08224508496445
  C           0.95847248696622      1.03921863094837     -2.05506281082607
  N          -0.29116472793980      1.74542801582202     -1.93130900733167
  H          -0.81092237197861      1.61233920597594     -1.07719436911295
  H           1.65380675187471      1.37243993607307     -1.28342390826575
  H           0.79454452710636     -0.03297400292501     -1.93701947626191
  H           1.37317599891082      1.24480528646408     -3.03975305281655
  C          -3.37353506673705      4.88840782803692     -4.00102000248702
  O          -4.33207060598166      5.00209220606409     -3.24775400016064
  C          -3.23509112975729      5.63335605912616     -5.29818006694925
  H          -2.32753299144224      6.23121991491151     -5.28987248498450
  H          -3.17758292765746      4.93007563838043     -6.12502556977777
  H          -4.09600283082232      6.28078210376232     -5.43353711016006
