47
Coordinates from ORCA-job /home/esp/scriptDevelopment/drFrankenstein/11_PCY_CHARMM/04_torsion_scanning/torsion_NH1-CT1-CG321-CG2R61/scans_PCY_conformer_24/PCY_conformer_24_forwards/orca_scan E -79.898716813470
  H          -0.91635332456689     -1.76995625632960      0.73100634673312
  H          -0.54185088965454     -4.12051005945424      3.15547550011236
  H          -0.40821330368532      1.93744942425235      2.83529390821708
  H           0.04967090638895      4.74352089632455     -0.86220031574698
  H           0.34390774068412     -2.44022362933386      1.81041068145421
  H          -0.12545468148941      3.87089522310084      1.33242745437396
  H           0.55637567069685     -0.69864143956836     -0.38545254333042
  H           1.44770245818510      4.01265023731402     -1.64727840498656
  H          -4.27584267929276     -3.66106242669840      5.18031620978323
  H           0.81177777874649      1.21435093996962     -1.87437080419673
  H          -4.62250799614746     -1.50058154939976      4.01126856959207
  H          -0.60947411443132      3.48715845004682     -4.53262010564829
  H          -2.23328443345703     -4.97806370201359      4.71570380572019
  N           0.10763224852617      3.74453925527308     -3.84479112601188
  C          -0.38556180444485      3.58154376364674     -2.58754862950082
  C          -1.75605225186894      3.09118674562565     -2.60294945856835
  C           0.40999760120023      3.83533026188570     -1.35540763043527
  O          -2.30532923610321      2.84213127924589     -3.69766131072489
  C           0.32778594299104      2.67649456508084     -0.39228157461666
  C           0.01419871489809      2.87099059885172      0.94954986836937
  C          -0.14204061294830      1.79589917459567      1.79936473251908
  C           0.00717533486196      0.49512399893703      1.32098101784300
  C           0.38433024310344      0.29422672696208     -0.00175879118464
  C           0.53577728951804      1.38003663656149     -0.84370687850182
  O          -0.22406406539947     -0.50032947312768      2.22497240885142
  C          -0.54855707930604     -1.80726555123590      1.76179124350372
  C          -1.62548365594288     -2.35559420691534      2.66082476350985
  C          -1.44511770699932     -3.55756983086621      3.32930202815275
  C          -2.39596715725712     -4.03656859059372      4.21636588484161
  C          -3.54168168953048     -3.30051495536300      4.47885103244501
  C          -3.74003769208624     -2.09605132096320      3.83480659276366
  C          -2.79957425854217     -1.63489637098878      2.91536754214559
  N          -3.09677716998029     -0.40900798483813      2.25321645424365
  O          -3.74563458136066      0.43032926847965      2.86762054583819
  O          -2.73595576328333     -0.24419088518261      1.09343309019951
  C          -3.68432119410486      2.32533828254076     -1.29878424941974
  N          -2.39807520454932      2.96544798478630     -1.42395887800219
  H          -1.87535047489761      3.09039306837270     -0.57026998355296
  H          -3.58548435072852      1.39197569995359     -0.74006431895613
  H          -4.37939158851991      2.98210003242459     -0.77643046327372
  H          -4.05900964111415      2.11660054044162     -2.29901174298606
  C           1.33820672912940      4.13496330076025     -4.29765237161737
  O           2.25977898112035      4.44913510516709     -3.55078750861404
  C           1.46582642280623      4.14687445925031     -5.79431558610874
  H           2.26205418421797      3.46392796200176     -6.08322064655343
  H           0.54307649905092      3.86521518727917     -6.28836570106944
  H           1.76619385556701      5.14320916374049     -6.11145065760556
