47
Coordinates from ORCA-job /home/esp/scriptDevelopment/drFrankenstein/11_PCY_CHARMM/04_torsion_scanning/torsion_NH1-CT1-CG321-CG2R61/scans_PCY_conformer_24/PCY_conformer_24_forwards/orca_scan E -79.897507662750
  H          -0.00250497253738      0.44638478135266      3.12648237408457
  H          -0.33545636859416     -1.91509077984656      5.54427965333923
  H          -2.66354813349040     -0.87750283863032      0.03180673884516
  H          -3.87929840423710      3.52254306661577     -1.66108636293077
  H          -1.21403343992490     -0.17307269677392      4.29060729391151
  H          -3.20253517091285      0.87837178413272     -1.62018770514594
  H          -1.30885931010917      2.11980910555725      2.75759094416755
  H          -2.62336745386734      4.53306111947045     -0.99261553550695
  H           1.91605082795796     -5.08140557365566      3.76780669643181
  H          -1.81665720879435      3.84657262059101      1.11653138759464
  H           1.83147559918689     -3.89419710387806      1.59145547318345
  H          -1.85107591982046      3.85356013219496     -4.59800691843743
  H           0.84581557610565     -4.05764373867181      5.75064862873242
  N          -2.50340938809939      4.02503290500555     -3.82402311924881
  C          -2.05557477391405      3.41636122788808     -2.69125345468155
  C          -0.76230242242726      2.78020187052316     -2.91415339651077
  C          -2.81270700515326      3.53822131958596     -1.41470736531712
  O          -0.32404024802208      2.70206045778675     -4.08275831388830
  C          -2.51388391534089      2.48715696442936     -0.38299824805438
  C          -2.77888185917116      1.14765216436432     -0.66470591715020
  C          -2.48132299729479      0.16318830006279      0.25052555151936
  C          -1.91459773021569      0.49544182253135      1.48216048117761
  C          -1.70180729757125      1.83154401994216      1.79606212058568
  C          -1.99829314424296      2.81275465502082      0.86400881626619
  O          -1.62721636241000     -0.55387646751681      2.30368407945065
  C          -0.68299020233265     -0.38078142400179      3.35526408675749
  C           0.10278197821363     -1.65956663590663      3.47647414826258
  C           0.15519572801869     -2.34112246330458      4.68355872656950
  C           0.81470820002592     -3.55441439946877      4.79774222358562
  C           1.41512617619273     -4.13068063798030      3.68817134087608
  C           1.36944080736087     -3.47801311594913      2.47345352262730
  C           0.73537185359613     -2.24040391429832      2.36834883241914
  N           0.77536956784535     -1.60653375195745      1.09531487257843
  O           0.83820701741867     -2.32258426113535      0.09785829980260
  O           0.78425238351344     -0.38160346750748      1.02451261778599
  C           1.19087582811023      1.63660933812289     -1.97600692523874
  N          -0.05631877972608      2.34850863438335     -1.85335507968526
  H          -0.46098737086465      2.40949138394890     -0.93111493475325
  H           2.00122994600851      2.21344198206928     -1.52916170866636
  H           1.12013736755273      0.67490913777486     -1.46664678041410
  H           1.39537470183008      1.48301229218162     -3.03391340330893
  C          -3.66518422398811      4.69875982319896     -4.09275546243334
  O          -4.52912237558395      4.91434510059804     -3.25167230089092
  C          -3.75802964269171      5.15171195725401     -5.52181974019969
  H          -2.92252030639398      5.80517218049022     -5.75942133287498
  H          -3.72491025208260      4.29316787377875     -6.18794614957721
  H          -4.69095687912277      5.68745524962697     -5.66802875563955
