47
Coordinates from ORCA-job /home/esp/scriptDevelopment/drFrankenstein/11_PCY_CHARMM/04_torsion_scanning/torsion_NH1-CT1-CG321-CG2R61/scans_PCY_conformer_24/PCY_conformer_24_forwards/orca_scan E -79.893431309680
  H           0.62201134876153     -1.66363898649488      1.56028973232654
  H           0.14659099899492     -2.63070289587271      4.76597053388497
  H          -2.90639335542341      0.75264875567654      0.70050848049047
  H          -0.60141948473930      4.99573952653445     -0.34686995295732
  H           0.38362406109814     -0.95411788982694      3.18823370098580
  H          -2.54810537589349      2.86185943451540     -0.53059896572328
  H           1.28038936327140      0.53721901545454      1.51941628465907
  H           0.85791130485902      4.32188746978825     -1.09231150090189
  H          -2.50378154187134     -5.92874562564647      4.17613596299034
  H           1.63107055033347      2.60355892459490      0.29108386677815
  H          -2.92257167417791     -5.15179465446769      1.85690491155368
  H          -1.79596296635344      3.24816154645637     -3.76428797420135
  H          -0.93288775129630     -4.66620922812946      5.61242585392054
  N          -1.10277668498911      3.07387048494969     -3.02979016360743
  C          -0.89811073178855      4.19937902060812     -2.28739999447502
  C          -1.59461665829276      5.34741475727342     -2.84335870319222
  C          -0.22026367650030      4.17706059510702     -0.96083160273203
  O          -2.30724290087968      5.20423611990528     -3.86038792459274
  C          -0.42748911223539      2.88250114953759     -0.21268961653181
  C          -1.70755923765825      2.35210718819504     -0.08258630808284
  C          -1.91873925414198      1.17666152658765      0.60463837515773
  C          -0.84642344655672      0.50143613726356      1.18643041132104
  C           0.43146821054393      1.03364571704967      1.07844209994907
  C           0.62911746550095      2.21395709852438      0.38273012882853
  O          -1.16356739379392     -0.65135789216737      1.84559599527871
  C          -0.11153260605563     -1.46227957545585      2.35222299955541
  C          -0.72807150542067     -2.74912814965150      2.82746166544304
  C          -0.51122723798270     -3.19452454072684      4.12373970531115
  C          -1.12786580957103     -4.33858486596334      4.60404234412253
  C          -2.00826171831181     -5.04839933421771      3.80129025925640
  C          -2.24873480613033     -4.62071520152108      2.51135659954910
  C          -1.59741343892377     -3.49121928682255      2.01858346435353
  N          -1.84812924339787     -3.14401804821657      0.65981220214336
  O          -2.95087950139227     -3.41304506397231      0.19616614439836
  O          -0.95552418527343     -2.63574651482076     -0.00485180768341
  C          -2.05312991174734      7.75320968199885     -2.73300491785150
  N          -1.43502365396126      6.54587000538347     -2.24263509681730
  H          -0.78876082587857      6.63771436589189     -1.47617485457714
  H          -2.66848419177601      8.20354729471046     -1.95415905616741
  H          -1.29581721669539      8.46892154042012     -3.05427339483065
  H          -2.67987336875886      7.48674956006171     -3.58225443570978
  C          -0.37969820902320      1.90939846544513     -3.08482156709228
  O           0.65660781785313      1.74393312508501     -2.46037194052605
  C          -0.99166619975289      0.88409548286058     -3.99656909311287
  H          -1.98540058175529      0.62516178142824     -3.63911526188155
  H          -1.07582682277098      1.27664246668627     -5.00665684742976
  H          -0.37053884004526     -0.00635048401964     -4.00147074157993
