47
Coordinates from ORCA-job /home/esp/scriptDevelopment/drFrankenstein/11_PCY_CHARMM/04_torsion_scanning/torsion_NH1-CT1-CG321-CG2R61/scans_PCY_conformer_24/PCY_conformer_24_forwards/orca_scan E -79.899330155180
  H           0.02311789358688      0.39681541348071      3.09206607107365
  H          -0.36528719426990     -2.01009468168188      5.44455503047449
  H          -2.67950327654507     -0.66835961071632     -0.04834660279340
  H          -3.65715498151352      3.97197544033099     -1.47407544328710
  H          -1.20982471189245     -0.20174764649052      4.24504547857535
  H          -3.12210762142684      1.18441634640488     -1.61960832133072
  H          -1.24862289404410      2.13677890155034      2.83847845809069
  H          -2.19404940607733      4.74787905233354     -0.88678611747504
  H           1.67206525472420     -5.23621560555830      3.52258030145042
  H          -1.66214425086776      3.95925841668088      1.27689377820604
  H           1.58570296777490     -3.98925219475954      1.37964378709118
  H          -1.91107970509552      3.56372142950074     -4.56936129749119
  H           0.71330144457213     -4.21325684130360      5.56144814018446
  N          -2.52690788338770      3.83628231259824     -3.79451683693063
  C          -1.94163951288925      3.52948666928424     -2.60574026099726
  C          -0.62327790285828      2.93783821373730     -2.79064482512717
  C          -2.59061384630482      3.81228454911719     -1.29590925464906
  O          -0.22710112821854      2.68057413862804     -3.94777090803657
  C          -2.38948346821919      2.70233247186759     -0.29679190634907
  C          -2.70341951316690      1.39115828427499     -0.64625111201749
  C          -2.46152818119050      0.35258965917382      0.22485717392034
  C          -1.89766308399603      0.60193968591423      1.47659014672142
  C          -1.63928497699141      1.91173379723712      1.85925883620897
  C          -1.88104595319668      2.94690971341239      0.97145157374012
  O          -1.65175086838691     -0.49574843170104      2.24797613327663
  C          -0.69546005750763     -0.40387776462513      3.29929954496510
  C           0.02849859921292     -1.72195514171099      3.37179864295577
  C           0.07964544706984     -2.43660001502927      4.55962683835002
  C           0.68054535294069     -3.68360699295276      4.62303196783381
  C           1.21880620123091     -4.25949089416487      3.48192649533555
  C           1.17180007330598     -3.57340622098529      2.28537285310501
  C           0.60005699081637     -2.30332038027407      2.23244120771000
  N           0.63515420589381     -1.63561623953688      0.97493319012082
  O           0.58187400760493     -2.32373071733870     -0.04014527375879
  O           0.75768431969924     -0.41635903307624      0.93912140402997
  C           1.39912185632608      2.02867723771901     -1.74405313723161
  N           0.14462162481717      2.73840423059089     -1.70159787448364
  H          -0.25455197874746      2.89719677178331     -0.78872930645325
  H           2.20310811155691      2.66400032081375     -1.37258910046873
  H           1.34043750065706      1.12973835044719     -1.12762870523583
  H           1.60105584533302      1.75451653478763     -2.77786376715263
  C          -3.76152355797512      4.34374542869723     -4.10078484725099
  O          -4.58717390589289      4.66927360564852     -3.25565412568844
  C          -3.99032817362171      4.46539141286603     -5.58026797639900
  H          -3.24285825464414      5.12201950732895     -6.01829722826048
  H          -3.91183328057923      3.48914885055128     -6.05210264473297
  H          -4.98035812761608      4.87456166514441     -5.75687017981872
