47
Coordinates from ORCA-job /home/esp/scriptDevelopment/drFrankenstein/11_PCY_CHARMM/04_torsion_scanning/torsion_NH1-CT1-CG321-CG2R61/scans_PCY_conformer_24/PCY_conformer_24_forwards/orca_scan E -79.898715132040
  H           0.61094083810498     -0.16530948862482      2.58408939490875
  H          -0.58582297273994     -1.80324865870651      5.29857570656312
  H          -2.73914893321266     -0.45454305451843     -0.21912135423646
  H          -3.46401244223478      4.21786815259829     -1.21614463432413
  H          -0.74932267817384     -0.09741434075926      3.75004844859823
  H          -3.27885866923257      1.57008823508252     -1.52405806875852
  H          -0.30783258480159      1.89378849261871      2.39349956334290
  H          -1.95654911400458      4.98547791935932     -0.67737814425605
  H           0.25798553412517     -5.83261580563313      4.15887084424131
  H          -0.83482732383618      3.87952257786916      1.10715016771635
  H           0.61638848558483     -5.07622527476312      1.82340065531505
  H          -2.00975293744222      3.46115078640427     -4.42544906682488
  H          -0.31658746327446     -4.16790017614525      5.89777102458373
  N          -2.60021258990691      3.56663055679889     -3.59301948549980
  C          -1.83986390255268      3.93290094374982     -2.52678637216378
  C          -0.43031667749640      4.02102048389917     -2.86923432752106
  C          -2.38142375942913      4.09925424596309     -1.15016576827244
  O          -0.07037005486639      3.86747974996068     -4.05581837760213
  C          -2.07172790839430      2.86830354072102     -0.32226664615271
  C          -2.61266332615604      1.63671525101219     -0.67754463549104
  C          -2.32421576190183      0.50402699490382      0.05062203843417
  C          -1.47962522218786      0.57364326007173      1.15995836606623
  C          -0.94754840421163      1.80113248676460      1.53129704679500
  C          -1.24327349421136      2.93200108399867      0.78670761676120
  O          -1.26167709870097     -0.60395777587816      1.80938852458787
  C          -0.33459243613599     -0.63268253561760      2.88778608172381
  C          -0.10234706995291     -2.07574188472175      3.24201154198370
  C          -0.30525253324939     -2.51825558767856      4.54151375244321
  C          -0.16149913904660     -3.85465059936299      4.87794476290306
  C           0.16061245700583     -4.78981828349598      3.90568871016579
  C           0.35832527799531     -4.37713164014389      2.60391577825293
  C           0.24784994217843     -3.02677602450896      2.27475306617928
  N           0.52262307023208     -2.66967601374833      0.92358826368964
  O           0.30175434892429     -3.50648022055044      0.05484957546463
  O           1.00144794686023     -1.57109008306459      0.67674072947877
  C           1.86571104158170      4.35293907860812     -2.08329007762275
  N           0.43935417842591      4.30319081605686     -1.87742421782549
  H           0.11231208128702      4.28376639100727     -0.92486919449504
  H           2.26689374822798      5.27998398403451     -1.67547360812582
  H           2.35593573540090      3.50396662523316     -1.60412187350857
  H           2.05112457893875      4.31466288734885     -3.15523557503472
  C          -3.94924115639607      3.38181975355345     -3.73725472962648
  O          -4.75119894309673      3.50161666290040     -2.81853334721264
  C          -4.33727124042694      3.00816454490790     -5.14008904522661
  H          -4.04076169486308      3.79403618650841     -5.83024233912517
  H          -3.83932238159258      2.08648418188943     -5.43122448932159
  H          -5.41311935114471      2.86989157409748     -5.18941628197086
