47
Coordinates from ORCA-job /home/esp/scriptDevelopment/drFrankenstein/11_PCY_CHARMM/04_torsion_scanning/torsion_NH1-CT1-CG321-CG2R61/scans_PCY_conformer_24/PCY_conformer_24_forwards/orca_scan E -79.896898236380
  H           0.68132180883586     -0.97174501506830      1.36503841736536
  H           0.92328781936766     -1.81593525954028      4.64516017082748
  H          -3.54662551911912      0.14950410568319      1.06925907377653
  H          -3.43741902909705      4.15263135412744     -1.27511569710402
  H           0.43883404960340     -0.27557655588528      2.99884268346881
  H          -4.08174189903082      2.17881150362691     -0.23052002724324
  H           0.57478471965977      1.27497246035342      1.11308975703606
  H          -2.09994749923957      5.01865508970861     -0.49804009696586
  H          -0.46165798364236     -5.85285320279854      4.46637276521388
  H           0.04350663297087      3.26957352151204     -0.16776787236531
  H          -1.36086428764608     -5.42264004405292      2.19478322667455
  H          -1.28040459022201      3.19356469503627     -4.09032513496602
  H           0.70980668743541     -4.03547049188659      5.67078182464573
  N          -1.98411180497263      3.20015859399867     -3.34476539277226
  C          -1.63227012520263      4.08146083677902     -2.36683097003260
  C          -0.39205112068472      4.76952632698084     -2.68236839464437
  C          -2.36460198719233      4.13346147159363     -1.07388212955437
  O           0.16929442263869      4.55404532027411     -3.77843996006332
  C          -2.05899799761130      2.87976418050614     -0.27562795680798
  C          -3.06497161094062      1.98838170360910      0.07575320092436
  C          -2.77253744418198      0.84925366031684      0.79553836423075
  C          -1.46071832315914      0.57177745696692      1.17969863691218
  C          -0.44923628289643      1.45868358274737      0.83178165722609
  C          -0.75532728171261      2.59694989316232      0.10602199221046
  O          -1.28497346025650     -0.57647843175435      1.89342252010854
  C           0.03422298779062     -0.96861403319418      2.25167225792818
  C          -0.05271461730221     -2.35410703067782      2.83015472651130
  C           0.43833261761960     -2.61167071561978      4.10226067898851
  C           0.31021623877739     -3.86237365649476      4.68459355328906
  C          -0.34540935204954     -4.88276583521329      4.01201743065525
  C          -0.85113241733693     -4.65002327168795      2.74947733071142
  C          -0.69066861638009     -3.40064420288927      2.15131564720830
  N          -1.18825998145931     -3.25515657786155      0.82480116196303
  O          -2.13651525199468     -3.95732582029272      0.48972223481130
  O          -0.63836917695717     -2.47705029168567      0.05620548081234
  C           1.34090382365682      6.35996851521770     -1.99038455510539
  N           0.11356637669885      5.63388365830191     -1.77798288189745
  H          -0.36268695340880      5.77785100108771     -0.90247510032690
  H           1.15776062062512      7.43388342953950     -1.95363956515744
  H           2.07667552022079      6.09342554910117     -1.23091369993098
  H           1.72242913250801      6.09075909156558     -2.97382612129471
  C          -3.13428693291614      2.48169070569358     -3.53600053124977
  O          -4.09313472434141      2.53095402431812     -2.77832745240582
  C          -3.09053877988355      1.63556717663516     -4.77733294648412
  H          -2.91402577863984      2.25688781683955     -5.65160701289985
  H          -2.28440000892643      0.91023629124436     -4.69772195589895
  H          -4.03532262000480      1.11215742007607     -4.88785933832877
