47
Coordinates from ORCA-job /home/esp/scriptDevelopment/drFrankenstein/11_PCY_CHARMM/04_torsion_scanning/torsion_NH1-CT1-CG321-CG2R61/scans_PCY_conformer_24/PCY_conformer_24_forwards/orca_scan E -79.891359069910
  H           0.65636083069686     -1.25644578659235      1.57795961476919
  H           0.46660136113469     -3.14382837412405      4.37099624178296
  H          -2.96857631742043      0.89887266126682      1.18323578568783
  H          -1.09271650765970      5.12905109210556     -0.34961474436411
  H           0.54695540311440     -1.04587615985187      3.35332044940367
  H          -2.74612746850692      2.97333044229061     -0.13417827743916
  H           1.23947400759425      0.92932456135053      1.91258871054381
  H           0.54908494965850      4.63011440997753     -0.79224609227651
  H          -2.26896855139618     -6.15545910209031      3.06685813863234
  H           1.45855069183645      2.96778253715513      0.59818223792023
  H          -2.89599893121924     -4.72454317993971      1.13897484613966
  H          -1.92676585215088      2.88753161630919     -3.44328314944848
  H          -0.55300899984837     -5.35930529150170      4.66148438698532
  N          -1.29742408701565      2.81904029058444     -2.63743744126788
  C          -0.98357255541085      4.06124154049686     -2.16486489434546
  C          -1.45701816966196      5.11775021751417     -3.04266167527804
  C          -0.49923061931342      4.31293722706975     -0.77265259293687
  O          -2.06408839276401      4.82651111364091     -4.09540110420496
  C          -0.62110630828717      3.10569416950139      0.11805407266506
  C          -1.87130212391545      2.52698487904833      0.31535946555544
  C          -2.00642907311949      1.36953186729776      1.05008783837377
  C          -0.88219065542152      0.76247634519971      1.60522366737218
  C           0.36032389208456      1.36585789576158      1.46635414976721
  C           0.48114404354121      2.52918447765729      0.72689381593244
  O          -1.10302024848450     -0.41066688812983      2.27322830948701
  C          -0.01180696998504     -1.30701070604644      2.44718540246573
  C          -0.58607500767201     -2.69183590325810      2.57575802105011
  C          -0.25401796830932     -3.50110818749843      3.65262225502067
  C          -0.83712970154177     -4.74672413416898      3.82111030964495
  C          -1.79875123946093     -5.19586837751291      2.92856301942283
  C          -2.15495875128137     -4.40438322860172      1.85509032413770
  C          -1.53541516795104     -3.17104078469428      1.66561550941596
  N          -1.90819816541446     -2.43424672654628      0.50367917334141
  O          -3.07114586273469     -2.51706976366116      0.12510106428928
  O          -1.05929514874472     -1.78965139834003     -0.09912758646605
  C          -1.59430314201487      7.52404300554422     -3.49600233948336
  N          -1.21112187246836      6.39610474466960     -2.68273081980685
  H          -0.65201736041254      6.58354260443585     -1.86690697126395
  H          -2.21831289549495      8.20732115301781     -2.92020974197876
  H          -0.71327432080902      8.05615640404338     -3.85635618795151
  H          -2.15872551458666      7.14571696127606     -4.34651082028513
  C          -0.65870594010939      1.61653981688414     -2.43335916304846
  O           0.41939306128526      1.53649499859713     -1.86797301982189
  C          -1.39887404312754      0.43640307751075     -2.99233258295456
  H          -2.45863187148892      0.64214098756355     -3.09532416073344
  H          -0.98333658658745      0.17528179390067     -3.96349280961708
  H          -1.24722584915531     -0.40988889911258     -2.32485063483428
