47
Coordinates from ORCA-job /home/esp/scriptDevelopment/drFrankenstein/11_PCY_CHARMM/04_torsion_scanning/torsion_NH1-CT1-CG321-CG2R61/scans_PCY_conformer_24/PCY_conformer_24_forwards/orca_scan E -79.894546273860
  H           0.58107885429934     -1.69487749185725      1.53146162147187
  H           0.15662122042997     -2.63403013137487      4.75269882111321
  H          -2.85395204419047      0.87225736020567      0.75871662458021
  H          -0.31711679944174      4.98335482395797     -0.42252579966560
  H           0.42789934664743     -0.97550469463036      3.16534849399140
  H          -2.43431486587416      2.93853900019202     -0.52363433155849
  H           1.34314831871015      0.45987199236794      1.43908729746252
  H           1.01219751236471      4.18324459328060     -1.27788085746709
  H          -2.64811056068493     -5.81608943957763      4.24613967272379
  H           1.75288537431853      2.48542716786416      0.16079608210802
  H          -3.09901352586387     -5.02437948790308      1.93805120557592
  H          -1.72252723166639      3.21483928595845     -3.80310808994180
  H          -0.98498474370388     -4.61969928417300      5.63466425830524
  N          -0.98875591934503      3.06559219622085     -3.10368464468292
  C          -0.83558812362950      4.17238513184144     -2.32196455630872
  C          -1.66186217445970      5.27601187042657     -2.78117797775678
  C          -0.05866223729556      4.13202755640754     -1.05322755758077
  O          -2.40730612627591      5.11532691241939     -3.77205733979783
  C          -0.30584661788022      2.85991726108917     -0.27457794662192
  C          -1.60502107884522      2.39577275981507     -0.09358653512207
  C          -1.85021925674445      1.24400669861009      0.62217697641766
  C          -0.79337738351969      0.52561789251162      1.17995652710982
  C           0.50510517688393      0.99067717350338      1.01778008948345
  C           0.73699319844359      2.14791444151266      0.29430567709029
  O          -1.14391920954381     -0.59783323634363      1.87155755648454
  C          -0.11683065015903     -1.45890416091413      2.34563251062754
  C          -0.77787341512018     -2.71593722239994      2.84045864164716
  C          -0.54334683788288     -3.16931965363017      4.13092964108240
  C          -1.19449624491019     -4.28519505272820      4.63147248342529
  C          -2.12671151321571     -4.95781183098309      3.85556528110368
  C          -2.38523667514764     -4.52153641808858      2.57216079225533
  C          -1.70147645087789     -3.42069511732061      2.05828335048107
  N          -1.97734015861809     -3.06512783129793      0.70687900232887
  O          -3.09867339172864     -3.30360693936806      0.27114200673027
  O          -1.08965392884714     -2.57875764436155      0.01932280903877
  C          -2.34608644428788      7.61553026880224     -2.51843575221161
  N          -1.58614269899925      6.45403053746578     -2.12721259653500
  H          -0.93514592206956      6.56407218366602     -1.36726300302634
  H          -2.97400423953610      7.95143122953320     -1.69310575662620
  H          -1.67981329969088      8.42502835774980     -2.81777387992775
  H          -2.97463120601338      7.33517732361418     -3.36188509816554
  C          -0.20861298697073      1.94310518383362     -3.20534209324583
  O           0.83433888680016      1.80190819168171     -2.58519239904030
  C          -0.76848372990738      0.92677101238939     -4.15978159808962
  H          -1.72957481085842      0.57499516347350     -3.79184540323910
  H          -0.91159015658612      1.36624829584449     -5.14341680020839
  H          -0.08494522850611      0.08623377071353     -4.22989740581874
