47
Coordinates from ORCA-job /home/esp/scriptDevelopment/drFrankenstein/11_PCY_CHARMM/04_torsion_scanning/torsion_NH1-CT1-CG321-CG2R61/scans_PCY_conformer_24/PCY_conformer_24_forwards/orca_scan E -79.894211986510
  H           0.34925691977743     -1.50506303130820      0.86572846563213
  H           1.34691919406411     -2.39457050489432      3.99254481493778
  H          -3.38728659308143      0.62014880690739      1.75858913443598
  H          -3.08718993004112      4.35315237603976     -0.99031894273415
  H           0.77164639403188     -0.77744624892986      2.44809395773281
  H          -3.79772939897713      2.72501390746744      0.54442792422414
  H           0.69581945991705      0.70084745192232      0.50502237262076
  H          -1.60166861810552      5.02283628397413     -0.29510814027624
  H          -0.92444464104987     -5.97821830224862      4.48881757194632
  H           0.28771144016519      2.78205257952603     -0.68498618659042
  H          -2.32452536782693     -5.33612222316768      2.54348749501747
  H          -0.77742682306151      3.20255446884802     -3.83856889820057
  H           0.93574908405603     -4.50077682230761      5.18382689002248
  N          -1.42711354124362      3.10260202216296     -3.05234564497642
  C          -1.38631634321916      4.20396790832604     -2.24929322049865
  C          -0.53277642293695      5.24312753433723     -2.79997845237787
  C          -2.00550747706704      4.20733498027918     -0.89619151119304
  O           0.07204661598148      5.03672098462245     -3.87445827810733
  C          -1.78199045413124      2.90539835659330     -0.16062855553457
  C          -2.81062677020438      2.29010182599920      0.54250074367522
  C          -2.59124497922285      1.11103747270997      1.22087846131460
  C          -1.33072047564692      0.51412284706175      1.21238828314475
  C          -0.29293789339613      1.12957090699976      0.52511368523250
  C          -0.52768560900489      2.31423071330682     -0.15212605178767
  O          -1.22413049966756     -0.65189304624826      1.91372164598595
  C           0.01438557568782     -1.35033732843262      1.89957758017874
  C          -0.21405700694609     -2.67637563476532      2.57129406567079
  C           0.55427638862576     -3.04852787144999      3.66523639145101
  C           0.31642718965359     -4.23349057588435      4.34286471894585
  C          -0.72502252663458     -5.06337574449249      3.95558094848111
  C          -1.51009985648979     -4.71144226382349      2.87665588203142
  C          -1.24654948350037     -3.53594071765250      2.17476957645821
  N          -2.06209351189145     -3.27025281873261      1.03740156762660
  O          -3.20745634406433     -3.70854280490375      1.04160088597245
  O          -1.58980554689419     -2.66132063902888      0.08670078786760
  C           0.36511355629755      7.51642583822844     -2.61363975144099
  N          -0.42752446454092      6.41161477931866     -2.13285369043967
  H          -0.98245870315252      6.56869113770276     -1.30773779676974
  H          -0.26922523835404      8.37475838742894     -2.83695668734003
  H           1.10669763685778      7.80053638712195     -1.86707104890552
  H           0.86972358724691      7.19504829791157     -3.52310021675644
  C          -2.31100835234419      2.05465060469392     -3.06435752971935
  O          -3.27784363235308      1.99426920397389     -2.32001387637019
  C          -1.96870433001357      1.01374267390157     -4.09250276021515
  H          -2.01445814032211      1.44343429926949     -5.09019387179303
  H          -0.96288690817487      0.64020634083122     -3.91930266069842
  H          -2.67623715880215      0.19350720080435     -4.01908007788126
