47
Coordinates from ORCA-job /home/esp/scriptDevelopment/drFrankenstein/11_PCY_CHARMM/04_torsion_scanning/torsion_NH1-CT1-CG321-CG2R61/scans_PCY_conformer_24/PCY_conformer_24_forwards/orca_scan E -79.895183627920
  H           0.41568011590285     -1.41281830475037      0.92991522657959
  H           1.33416669206466     -2.23441802452080      4.09703018097163
  H          -3.45662813374375      0.52310790218302      1.64764351113136
  H          -3.23166311938204      4.23660314183981     -1.13576650591026
  H           0.73759821112681     -0.65465205165449      2.52159011118636
  H          -3.92279664447157      2.59935622069799      0.40269264537845
  H           0.66616175254021      0.80766583224691      0.56451276566469
  H          -1.84381342189875      5.01102803122640     -0.35404589674700
  H          -0.78434106725485     -5.91731269406723      4.54013688674751
  H           0.20173362615219      2.85854557961950     -0.65791764387675
  H          -2.14008328391840     -5.35474447011381      2.53955603968809
  H          -0.89015137944534      3.21269202653617     -3.91094673270297
  H           0.97825754795668     -4.34976989166176      5.28993973766412
  N          -1.56543438587027      3.12607672740421     -3.14478067155570
  C          -1.45432137391998      4.17655915265772     -2.28291715185254
  C          -0.47484605158699      5.14783395146687     -2.73903633433066
  C          -2.15185596686122      4.16660517120690     -0.97009169837903
  O           0.14104574337201      4.94181181789829     -3.80768980377656
  C          -1.89047839827449      2.88079721409494     -0.21470521442078
  C          -2.91585487162509      2.21531218735350      0.44588886894598
  C          -2.66480495726186      1.05209782629736      1.14072183082402
  C          -1.37559509437977      0.52195161644455      1.19060935403577
  C          -0.34291474062084      1.18583399846437      0.54146603667897
  C          -0.60946789222279      2.35347245940196     -0.15337913625017
  O          -1.23878542720238     -0.63141670511913      1.90670607149015
  C           0.03216891507192     -1.26784517347522      1.94815881616540
  C          -0.15816061027327     -2.59892014039374      2.62183578254136
  C           0.58560611930261     -2.92709469195080      3.74640186282050
  C           0.37853116287842     -4.11742012660360      4.42474358060594
  C          -0.60819562958394     -4.99778209293180      4.00677041797991
  C          -1.36840102049414     -4.69040945913725      2.89687711365686
  C          -1.13390246872646     -3.50880203429528      2.19496699401964
  N          -1.91780558180233     -3.28931055447630      1.02603124042363
  O          -3.04100967529418     -3.78026431844362      0.99154452292823
  O          -1.43918408115454     -2.66485303488314      0.08860269919085
  C           0.66370790796253      7.28860622261526     -2.38126953449384
  N          -0.26141835410509      6.25244545863943     -1.99399777464962
  H          -0.81215912536094      6.41407287447590     -1.16693214415009
  H           0.13483434454029      8.22372179649368     -2.56860520376077
  H           1.40439441214266      7.44391197910649     -1.59693503578390
  H           1.16235695181023      6.96769410217860     -3.29422494670930
  C          -2.50522666818250      2.13116364033835     -3.20974919279927
  O          -3.46284338644096      2.06882285852375     -2.45281058703404
  C          -2.23615584925284      1.14566245408597     -4.31191400192619
  H          -2.25226470073797      1.64780324274088     -5.27605795277305
  H          -1.25850669140990      0.69210452678923     -4.17087802962981
  H          -2.99815345006460      0.37248375545029     -4.29368110380672
