47
Coordinates from ORCA-job /home/esp/scriptDevelopment/drFrankenstein/11_PCY_CHARMM/04_torsion_scanning/torsion_NH1-CT1-CG321-CG2R61/scans_PCY_conformer_24/PCY_conformer_24_forwards/orca_scan E -79.896798924330
  H          -0.24346345012790      0.58843815992893      3.35023821590492
  H          -0.21654625859842     -2.02645932695872      5.53211152082921
  H          -2.86585016845101     -0.96494211430869      0.29542264048244
  H          -3.93180357445573      3.23004262721586     -1.81188417202318
  H          -1.30739600189387     -0.26063060997484      4.51009940231676
  H          -3.35671031228605      0.67200729527788     -1.48829749594842
  H          -1.44949783897816      2.19864574346570      2.79320094462657
  H          -2.82565137717701      4.35800336917741     -1.08093478096529
  H           2.22970581100113     -4.76312892299300      3.34669928889983
  H          -1.89793710030652      3.80393288165469      1.01849647702797
  H           1.93360754068942     -3.37360630675736      1.31312565115616
  H          -1.66910187285969      3.83579008570723     -4.53439675129738
  H           1.16756554851017     -4.05319328031167      5.46614833823398
  N          -2.36168951243403      3.98802365500645     -3.79100421984472
  C          -2.02943980897495      3.26106607758014     -2.68767345529784
  C          -0.77379170578557      2.54992369041571     -2.89708357753054
  C          -2.89399895515418      3.33705484623550     -1.47661183361783
  O          -0.25400544081101      2.58457636150659     -4.03521213190620
  C          -2.62210224193785      2.35195297501936     -0.37685974060895
  C          -2.92788237357488      1.00319976312109     -0.55498451043714
  C          -2.65713778013716      0.08441344549194      0.43464558923977
  C          -2.08255550687108      0.49493969580700      1.63895907504001
  C          -1.84306022759910      1.84647430472999      1.85331143891829
  C          -2.10599990677558      2.75895426291284      0.84597868983626
  O          -1.82423748407911     -0.49936293641561      2.53731351434969
  C          -0.81960944208834     -0.32285286093649      3.53231390133603
  C           0.09779202048689     -1.51924930919057      3.48864392277446
  C           0.27082199715322     -2.31220431198856      4.61345931688182
  C           1.04488035047916     -3.46104542358228      4.57364815913752
  C           1.64144285484464     -3.86121944635732      3.38733716985105
  C           1.47870338818946     -3.09511777759946      2.25123567067006
  C           0.73034941831105     -1.91991751095748      2.30322016327835
  N           0.65387877712182     -1.15387426565576      1.10758011231996
  O           0.71562641623019     -1.74965064365847      0.03287696489012
  O           0.56270918576885      0.06826054633454      1.17562528370605
  C           1.02964365417406      1.15624004826444     -2.00923468040733
  N          -0.18857441134502      1.91273622831315     -1.86776946852143
  H          -0.63503449321289      1.89894677953220     -0.96312034629756
  H           1.79823927751707      1.56084013952380     -1.35012307174619
  H           0.85687711913327      0.11103728941537     -1.74654607075614
  H           1.35707978681175      1.22490393206180     -3.04467547455022
  C          -3.43851371273147      4.79140304002548     -4.05446758410912
  O          -4.32758863221574      5.01391489433079     -3.24232277558992
  C          -3.40486267742004      5.37341195056949     -5.43893521445719
  H          -2.50234174937909      5.96454257761497     -5.57147498999308
  H          -3.40699052378040      4.57654743356900     -6.17827982767469
  H          -4.27652860498017      6.00424094783692     -5.58378927812687
