47
Coordinates from ORCA-job /home/esp/scriptDevelopment/drFrankenstein/11_PCY_CHARMM/04_torsion_scanning/torsion_NH1-CT1-CG321-CG2R61/scans_PCY_conformer_24/PCY_conformer_24_forwards/orca_scan E -79.896396312700
  H           0.42305509008327     -1.80680099539963      1.38737976238337
  H           0.25763725814163     -2.65013451339595      4.65857234218000
  H          -2.74375975592997      1.16656075491442      0.96721549055637
  H           0.10075781132159      4.94449361479514     -0.60618948934333
  H           0.54469971809361     -1.05752311698442      3.01036050720612
  H          -2.22841719191245      3.16019993303193     -0.39194047576193
  H           1.42102428137263      0.23081262701031      1.14785651248692
  H           1.23790264727169      3.97047472970152     -1.55105881859490
  H          -2.93811685423728     -5.48249678840109      4.54309583135073
  H           1.92246890485428      2.18982151926341     -0.20275189008746
  H          -3.54969245448589     -4.66995418174449      2.27982100099246
  H          -1.44537921875240      3.22449309779698     -4.00489671558139
  H          -1.00144990303920     -4.47591097215063      5.71005749929433
  N          -0.67887969824456      3.10231973796181     -3.33535012838655
  C          -0.68550805706282      4.10437626783338     -2.41187020034509
  C          -1.74626753554560      5.06389574354367     -2.66613065144805
  C           0.19910897578943      4.04942688013068     -1.21890856238905
  O          -2.47019649169437      4.92405155216775     -3.67628741400737
  C          -0.11002609019276      2.82196438337570     -0.38570523627881
  C          -1.42687386143871      2.52205110543264     -0.04960996499635
  C          -1.72532018415060      1.41040311779007      0.70786329688942
  C          -0.70631786870773      0.56552645746441      1.14780330370001
  C           0.61080091359839      0.86261070104528      0.82242753704125
  C           0.89694169932435      1.98226608609867      0.05928585955024
  O          -1.10801314192261     -0.50437299078836      1.89292847209753
  C          -0.14395991392789     -1.47936174957241      2.26871621027747
  C          -0.88924686509475     -2.64221851389911      2.86383758142724
  C          -0.56569079067932     -3.10545465249218      4.13135498861988
  C          -1.28204880141539     -4.13031047265990      4.72820204741887
  C          -2.36753152234020     -4.69652330221123      4.07651936808419
  C          -2.71580686047812     -4.24762201090131      2.81902245595669
  C          -1.97081755331428     -3.24134064259545      2.20560933201179
  N          -2.35337781142450     -2.87290624354605      0.88424872273854
  O          -3.53494508439074     -2.99201227355723      0.57717803525429
  O          -1.49928091452452     -2.49510101918488      0.09310310759021
  C          -2.94003351324143      7.08791531523754     -1.96972330409232
  N          -1.91237712322580      6.08993769767243     -1.80591866203624
  H          -1.32601191954276      6.16214900910899     -0.99070674639093
  H          -3.63127836523550      7.06511582892541     -1.12664758266079
  H          -2.49548542632220      8.08028537237250     -2.04499927658845
  H          -3.48146592681237      6.86265865333501     -2.88695420275221
  C           0.22641340314427      2.09880836955335     -3.55673459707952
  O           1.24940360049633      1.96226086369617     -2.90138280781882
  C          -0.17186617332793      1.19577936791108     -4.69025382895198
  H          -1.10319378951101      0.69118030052075     -4.44398047220129
  H          -0.31794788239458      1.77177447865874     -5.60021688265493
  H           0.60539024102883      0.45444087313451     -4.84823135466027
