47
Coordinates from ORCA-job /home/esp/scriptDevelopment/drFrankenstein/11_PCY_CHARMM/04_torsion_scanning/torsion_NH1-CT1-CG321-CG2R61/scans_PCY_conformer_24/PCY_conformer_24_forwards/orca_scan E -79.899563922940
  H           0.06597793023115      0.80654888258824      2.56390625760809
  H           0.22287030541911     -0.70285949861327      5.60300341273921
  H          -3.00054207740606     -1.38158516336115      0.50040197586719
  H          -3.69267911938800      1.59323334267074     -3.02529087441878
  H          -0.91961710818378      0.58921948293666      4.04206705502018
  H          -3.78129851756841     -0.25632186790855     -1.54892461734867
  H          -1.30139741281533      2.29359989713031      1.86332599196163
  H          -4.12419422881522      3.05258133191261     -2.13676219269850
  H           2.25135135796910     -4.30059999685567      4.51023787011578
  H          -2.05529176946861      3.39773432278806     -0.17469464319403
  H           1.76317660429070     -3.82885798619943      2.12417476638876
  H          -1.31244261044838      4.66249077312878     -3.66442957068769
  H           1.49600828634834     -2.70324035843835      6.24229017389789
  N          -2.22731576789513      4.36041535484224     -3.31011562051754
  C          -2.16349055636317      3.06459212928157     -2.90452681373502
  C          -0.83112522885985      2.50425531144196     -3.07843387327802
  C          -3.31902203713906      2.33573658169993     -2.31342559087545
  O           0.08726809868242      3.23047598045747     -3.51484027918308
  C          -2.93941215162425      1.64742747805121     -1.02495518097698
  C          -3.22878738608124      0.30341559929129     -0.80906162954422
  C          -2.79978255831634     -0.33433390466278      0.33626496863694
  C          -2.06204253181783      0.36098904707863      1.29300208262922
  C          -1.82464515942776      1.71918763028654      1.11581356054856
  C          -2.25844519845888      2.34617131397274     -0.03725885763694
  O          -1.63446056222113     -0.37194789281826      2.36132604575718
  C          -0.53892921416384      0.09824741819152      3.14000853844323
  C           0.30204923532262     -1.09453834397577      3.51164336110424
  C           0.57799057265760     -1.37839541047896      4.84106600348828
  C           1.28863094065064     -2.51208206084941      5.20176205605639
  C           1.71333576944099     -3.40909346948495      4.23309256305929
  C           1.44281398069214     -3.15503303935239      2.90382039543867
  C           0.76061035228562     -1.99492601183911      2.54099827554800
  N           0.56449263437187     -1.77518848592340      1.14735725071725
  O           0.43799666472030     -2.75845152259413      0.42516683526615
  O           0.56753411211945     -0.63056226945902      0.70784568558697
  C           0.64885446653502      0.57644311036391     -2.76198062272656
  N          -0.65203828972511      1.19774723080450     -2.79755666894035
  H          -1.40533813576205      0.68619960728619     -2.36360357554542
  H           0.89205135360027      0.27446388733263     -1.74090308932418
  H           0.66195941720395     -0.30202694489046     -3.40662873542866
  H           1.38084912652195      1.30025362740001     -3.11514097333028
  C          -3.24334000534366      5.27855329178205     -3.28522131213527
  O          -4.36824110509502      5.03118660495817     -2.86652702973546
  C          -2.82989523409066      6.61677146330088     -3.82763368509695
  H          -2.00261413319433      7.01651041812779     -3.24658407016228
  H          -2.50810631206279      6.51380558443110     -4.86096079314683
  H          -3.67230679732728      7.29979752416730     -3.77710482621185
