47
Coordinates from ORCA-job /home/esp/scriptDevelopment/drFrankenstein/11_PCY_CHARMM/04_torsion_scanning/torsion_NH1-CT1-CG321-CG2R61/scans_PCY_conformer_24/PCY_conformer_24_forwards/orca_scan E -79.886753236740
  H           0.67654578524489     -1.38978856505603      1.48752202825303
  H           0.68717109535001     -2.84419161666244      4.53585244962028
  H          -3.13207353340669      0.56921205495046      1.08224010607291
  H          -1.84482708065642      4.89804262387517     -0.38509108267898
  H           0.55407309212633     -0.92368589217040      3.21356603932779
  H          -3.11324299991263      2.71652572802636     -0.13575818630597
  H           1.08856879711839      0.87607982041711      1.65789668541063
  H          -0.07633262806611      4.83220461938412     -0.47206361817359
  H          -1.76316194344333     -6.25694637191113      3.75948242727567
  H           1.10559985073839      2.98791311051168      0.45100555307223
  H          -2.53907370386627     -5.19746261594625      1.65252119927196
  H          -1.96115406768890      3.33029504543683     -3.76507542495148
  H          -0.11760930324129     -5.07389345417912      5.17745708454023
  N          -1.57913636791135      3.04948931839573     -2.85390181645669
  C          -1.10127240671086      4.15543176574603     -2.20274526652383
  C          -1.11130668286604      5.32366974872675     -3.06973881877851
  C          -0.99445056280979      4.28896607546554     -0.71480521602709
  O          -1.42775787481382      5.19682078192456     -4.27320216887266
  C          -0.99694907456091      3.00010809170786      0.05934969279737
  C          -2.19178544812920      2.31640864450882      0.26132494171904
  C          -2.21367776671747      1.11813386195124      0.93980947669252
  C          -1.03033244117928      0.57549204122170      1.43643993617367
  C           0.16123842370736      1.26790294614412      1.27232354519868
  C           0.16770031220914      2.47180156108316      0.59002262651484
  O          -1.15491038261789     -0.62408529209864      2.07982926832423
  C           0.01983231841991     -1.37183032334375      2.36746959085182
  C          -0.41921960002178     -2.76746742474301      2.71704944198813
  C          -0.00317732297329     -3.37001536099993      3.89561545816575
  C          -0.46521202368400     -4.62414199803822      4.26143582602586
  C          -1.38730659395002     -5.29000996677448      3.46826510963614
  C          -1.82591850353093     -4.70612994477451      2.29634110996523
  C          -1.32696609923334     -3.46416436728627      1.91221688379707
  N          -1.77268815023902     -2.94592193504878      0.65939262739295
  O          -2.92922982679778     -3.17371265176433      0.32994998035684
  O          -0.98217993144776     -2.34465046913149     -0.05158872183573
  C          -0.71458761874221      7.72996983183446     -3.32366641392279
  N          -0.77134206873376      6.51893161612077     -2.54216191905226
  H          -0.50607668294932      6.58203257536704     -1.57359375875972
  H          -1.38929789278728      8.47891205647084     -2.90894625838011
  H           0.30052589859391      8.12785623124562     -3.34003197069516
  H          -1.02293819005872      7.48706379728849     -4.33901186607271
  C          -1.25018050673683      1.71710605566119     -2.73748121490022
  O          -0.38136119981363      1.30185575963300     -1.99053120735356
  C          -2.06288359863468      0.84079671008848     -3.64958677870130
  H          -3.12232301216220      1.04018844809374     -3.51707731631722
  H          -1.79659748300644      1.03628328209621     -4.68570872175321
  H          -1.85369499940701     -0.19938595344844     -3.41660134193213
