47
Coordinates from ORCA-job /home/esp/scriptDevelopment/drFrankenstein/11_PCY_CHARMM/04_torsion_scanning/torsion_NH1-CT1-CG321-CG2R61/scans_PCY_conformer_24/PCY_conformer_24_forwards/orca_scan E -79.897528546180
  H           0.76289251757869     -0.69214341018779      1.74957354008123
  H           0.46211022808455     -1.72673653168576      4.96727096657136
  H          -3.43017811387175     -0.07849345328733      0.63111837425344
  H          -3.46100876769763      4.18223904885607     -1.25269198629620
  H           0.10899257845799     -0.14857883435702      3.32773706602390
  H          -3.95715826720230      1.95687713886334     -0.66406881927388
  H           0.40938740243928      1.53573263927695      1.58221619761050
  H          -2.07107706745413      5.03109814305420     -0.54600027913928
  H          -0.28872107430974     -5.88364312597225      4.33342530386209
  H          -0.10784969514348      3.52844133530325      0.30320682651235
  H          -0.77218139758077     -5.41145309079991      1.94656590306278
  H          -1.50757405545004      3.16755470810753     -4.15987170388643
  H           0.35891768057835     -4.02150184397331      5.83031624107335
  N          -2.19970840741747      3.25957964583783     -3.40827540682448
  C          -1.69251957586262      4.01329768541690     -2.39369796383100
  C          -0.35719656309148      4.49924474737773     -2.70216596945446
  C          -2.38496000418202      4.13754087836128     -1.08259297794700
  O           0.16672019427700      4.20457111559901     -3.79793340330838
  C          -2.07432988266762      2.89579429315317     -0.26582340481430
  C          -3.00261746695900      1.86518242981542     -0.16842464484623
  C          -2.71474383418447      0.72497808846888      0.55064738683559
  C          -1.48252703618515      0.58413810832023      1.18927906208600
  C          -0.55007776399943      1.61001724536110      1.09715530431809
  C          -0.85001256743902      2.74839584527377      0.36843917414382
  O          -1.30352257545829     -0.57854121401526      1.87748544025168
  C          -0.04178597613324     -0.83121181767259      2.48305446614141
  C          -0.05307065531471     -2.25432713071199      2.96912139519653
  C           0.20813035854334     -2.53704925043041      4.30245010096470
  C           0.14177108663470     -3.83166252762094      4.79156745058270
  C          -0.22069983669976     -4.87698586748303      3.95520534143841
  C          -0.49452608616226     -4.62153697523290      2.62729542153671
  C          -0.39401009736854     -3.32279087314649      2.12906239965358
  N          -0.63601345177959     -3.14914233059817      0.73672048082753
  O          -1.38477687479001     -3.94753007325883      0.18236445716773
  O          -0.06827444231367     -2.24827374163413      0.13272384219683
  C           1.59034246504077      5.81356837728148     -2.00090156643743
  N           0.27082134391321      5.27156556647502     -1.79242267290134
  H          -0.20644817987086      5.52795500619908     -0.94359474540421
  H           1.56013808314856      6.90339141772671     -2.00072581001338
  H           2.26738377566557      5.47073643490308     -1.21800846094067
  H           1.94732037011342      5.46172663277466     -2.96717398352204
  C          -3.44986323508909      2.74435079199086     -3.62197319385120
  O          -4.38286389977273      2.88629670760743     -2.84210132597363
  C          -3.55362291752204      1.99102209884147     -4.91799569386669
  H          -3.29512568247463      2.63889075162144     -5.75165085527914
  H          -2.86746568730686      1.14748293952255     -4.90825586984148
  H          -4.56939694572094      1.62794227067770     -5.04164140473948
