47
Coordinates from ORCA-job /home/esp/scriptDevelopment/drFrankenstein/11_PCY_CHARMM/04_torsion_scanning/torsion_NH1-CT1-CG321-CG2R61/scans_PCY_conformer_24/PCY_conformer_24_forwards/orca_scan E -79.899077545610
  H           0.53099802503165     -0.05507757693832      2.72984776753238
  H          -0.70941086004622     -1.83943471765760      5.32799858157653
  H          -2.56757478792156     -0.53326485534963     -0.31614531899761
  H          -3.51566698646157      4.15597796696868     -1.25285368925445
  H          -0.90476559540744     -0.11336716617723      3.80199853131790
  H          -3.12723263891050      1.46810596722355     -1.65072872352938
  H          -0.50946466132564      1.93560110661632      2.49860145840272
  H          -2.01550447211190      4.93662791588694     -0.71976981846962
  H           0.49767823196578     -5.76902320380831      4.16668808765726
  H          -1.05405594999924      3.89915636833713      1.18070953356774
  H           0.94489694388197     -4.93290684765219      1.87408266779084
  H          -2.07906250984843      3.58207499410440     -4.49481759414077
  H          -0.30511679714567     -4.19231096872245      5.89719018589506
  N          -2.66865336240303      3.69376148189857     -3.66249604854358
  C          -1.89020292367817      3.88199150701480     -2.56388792051038
  C          -0.47365972777533      3.83265567426435     -2.88324035823400
  C          -2.43257072600640      4.04210627523845     -1.18690336850052
  O          -0.11085602290114      3.70188093690142     -4.07166746776495
  C          -2.10879793865843      2.82639123499682     -0.34517422449135
  C          -2.54093206729874      1.56705654677369     -0.74965081973558
  C          -2.23960810381793      0.44699342516127     -0.00741788861851
  C          -1.49226195356423      0.55792407066867      1.16666669185957
  C          -1.07137716930694      1.81237111484266      1.58743299828608
  C          -1.37790255574910      2.93060158522480      0.82799638526291
  O          -1.24829024904181     -0.61105016697128      1.82197566255725
  C          -0.39533670462729     -0.59681398971833      2.96018571194545
  C          -0.07978957864861     -2.02707469874794      3.30173677497317
  C          -0.33029520749321     -2.51399597953406      4.57678817677105
  C          -0.11000018814065     -3.84426005000529      4.89568319049268
  C           0.33994888049784     -4.73017914565337      3.92805314925518
  C           0.58776236915668     -4.27319707560097      2.64983741073406
  C           0.39929627804876     -2.92678379431452      2.34066460674378
  N           0.73117557326423     -2.51863563980789      1.01696719471307
  O           0.62516434320252     -3.34770695341885      0.11980249037552
  O           1.14442318565023     -1.38356079589487      0.82261790285578
  C           1.82846984553356      3.86037889698546     -2.05034303959290
  N           0.40254836391507      3.97225274084778     -1.86663341968809
  H           0.05731587676686      3.93475997565102     -0.92034934784735
  H           2.32918185819157      4.70852286481851     -1.58519636252266
  H           2.20349744037298      2.93355519330060     -1.61276985716584
  H           2.02973486625106      3.85793829989595     -3.12013576894122
  C          -4.02698030466466      3.64378207388157     -3.82751088016298
  O          -4.82600526260140      3.76248246170914     -2.90590648089589
  C          -4.42992968663693      3.42334086571961     -5.25816712790811
  H          -4.04842710106319      4.22914891537708     -5.88024953769047
  H          -4.02010089761192      2.48373140121434     -5.62045454613637
  H          -5.51323909086343      3.39548176444953     -5.32504555122344
