47
Coordinates from ORCA-job /home/esp/scriptDevelopment/drFrankenstein/11_PCY_CHARMM/04_torsion_scanning/torsion_NH1-CT1-CG321-CG2R61/scans_PCY_conformer_24/PCY_conformer_24_forwards/orca_scan E -79.898549802230
  H           0.12811009422036      0.69272725216890      2.67552400594253
  H           0.20145829947406     -0.98876310275729      5.63120231483777
  H          -3.03447143603580     -1.29898668260404      0.52016694932331
  H          -3.83143360801596      1.91516172223593     -2.77380766997662
  H          -0.87864541124396      0.41934199122006      4.12997222580259
  H          -3.82438581072422     -0.04366860496086     -1.44962911365914
  H          -1.16281038099813      2.23792192684895      2.01704105174888
  H          -4.00335698548609      3.36606219970550     -1.80843456771978
  H           2.19493079170802     -4.54975908903782      4.36720337750795
  H          -1.91864715613055      3.46738122735632      0.05355160497191
  H           1.76072494650181     -3.93145787811709      2.00451051300991
  H          -1.41167532361208      4.62442352535904     -3.93703855288346
  H           1.42949286938765     -3.04458972834651      6.17590992382119
  N          -2.30154487183848      4.36630586750958     -3.49484118580486
  C          -2.15573662037700      3.20777753404329     -2.79622244942610
  C          -0.80870351010027      2.66786612437119     -2.93747746633955
  C          -3.29777815344562      2.57554064142672     -2.08009716885606
  O           0.06355049507494      3.35766748569094     -3.50858312780712
  C          -2.89303222922693      1.79749086681044     -0.85730505752706
  C          -3.23170946346947      0.45672087250772     -0.69868403906670
  C          -2.79669292265625     -0.25344705757941      0.40136828282148
  C          -2.01174786332818      0.36505349436014      1.37368806086475
  C          -1.72406751491848      1.72030052228215      1.25600230718994
  C          -2.16078427859086      2.41936596329334      0.14659954853946
  O          -1.59451011532042     -0.43707350711063      2.39431898323255
  C          -0.49813180325451     -0.03139046677896      3.20702187604520
  C           0.31420003037710     -1.25952322184050      3.52248039354803
  C           0.56007316029495     -1.62500085500337      4.83772248153087
  C           1.24547110274926     -2.78961366459336      5.14471569838200
  C           1.67551213136031     -3.63518269918302      4.13298939728721
  C           1.43467784325655     -3.29966826671054      2.81628635747360
  C           0.77641602111729     -2.10981896380599      2.50885482193788
  N           0.60850186238399     -1.80767481938723      1.12808526154508
  O           0.49427900853073     -2.74628432353822      0.34496250859014
  O           0.62100514363645     -0.63822613005700      0.75647715069232
  C           0.75220122800534      0.83247342753165     -2.48029485227785
  N          -0.56246542572819      1.42370637018132     -2.48792520730856
  H          -1.29182475403231      0.91897161106741     -2.00757724523829
  H           1.00864650669310      0.52121625342662     -1.46661324262937
  H           0.78087073386622     -0.03829276006390     -3.13654337333035
  H           1.46364378717705      1.57576541129880     -2.83501127678989
  C          -3.35568293538544      5.23254057732293     -3.61323300946501
  O          -4.44620620076761      5.04482607486706     -3.08705437865404
  C          -3.03232184133052      6.42873126332293     -4.46194488520537
  H          -2.19627117349654      6.97606715036885     -4.03404578475886
  H          -2.75829934072756      6.10826601916619     -5.46393390226170
  H          -3.90180892557368      7.07675844573177     -4.51434753966076
