47
Coordinates from ORCA-job /home/esp/scriptDevelopment/drFrankenstein/11_PCY_CHARMM/04_torsion_scanning/torsion_NH1-CT1-CG321-CG2R61/scans_PCY_conformer_24/PCY_conformer_24_forwards/orca_scan E -79.899278831420
  H           0.10702607187944      0.74710944912079      2.61798299848721
  H           0.22392548156823     -0.84668272179425      5.61918510112102
  H          -3.03041714992329     -1.33735114215580      0.53017670121753
  H          -3.75173935788307      1.73413871215185     -2.90897511366822
  H          -0.88373366525712      0.50896022481970      4.08940136082148
  H          -3.81677849704958     -0.15457765909222     -1.48490176011769
  H          -1.21058685989653      2.26641817823506      1.92801894452113
  H          -4.07684037263318      3.19036638896004     -1.98173430315144
  H           2.21492970619894     -4.43742910983289      4.43813744905037
  H          -1.96660279599928      3.42539652612117     -0.07808295987651
  H           1.74980733942677     -3.89180925959915      2.06339109304562
  H          -1.36601415075992      4.65851233600346     -3.80183299758325
  H           1.46635444413179     -2.88102403450573      6.21002919703747
  N          -2.26950311810351      4.37109529344562     -3.40819395152777
  C          -2.16113978746813      3.13629832586601     -2.84902931616785
  C          -0.81782477149673      2.59223030510273     -2.99870047987936
  C          -3.30902189678949      2.44402121897087     -2.20170526535433
  O           0.07858365893577      3.30847732384379     -3.49405165965518
  C          -2.91367233246437      1.71582157789982     -0.94292854099699
  C          -3.23665642427848      0.37647857399145     -0.74519328093115
  C          -2.80400518457506     -0.29321361360169      0.38052901792089
  C          -2.03287318673002      0.36476574519997      1.33769567820182
  C          -1.76083006872923      1.71895071886094      1.17977713981591
  C          -2.19695877037860      2.37776265319041      0.04562237189809
  O          -1.61178598244288     -0.39960180332630      2.38587634511986
  C          -0.50958908309092      0.03455917893845      3.17580571511139
  C           0.31259162333470     -1.17990796122388      3.51822837451522
  C           0.57558217639315     -1.50501890426027      4.84075775998875
  C           1.26901339229088     -2.65762234380308      5.17397682380783
  C           1.68971216019569     -3.53182673039139      4.18294932465441
  C           1.43174693734625     -3.23672147557372      2.85974004847328
  C           0.76594198663596     -2.05856652743443      2.52519147238169
  N           0.58085784180560     -1.79818340581836      1.13758481809195
  O           0.45423226291054     -2.75985359828908      0.38588257950899
  O           0.59224989595615     -0.64107630718830      0.73059520352996
  C           0.70596833016068      0.71121777267564     -2.60685489353783
  N          -0.60413788655923      1.31242839770667     -2.63726925347515
  H          -1.34688833408032      0.80084606189128     -2.18534510028888
  H           0.95066263441119      0.40596174578395     -1.58769154635409
  H           0.73413065325606     -0.16382132003233     -3.25652683136898
  H           1.42702437639258      1.44751235470754     -2.95672868662275
  C          -3.30925064448704      5.26085203377264     -3.46431387608928
  O          -4.42034481772800      5.03212504392866     -3.00060782710122
  C          -2.94173384486359      6.54075921068173     -4.15908927839097
  H          -2.11531956302790      7.02279675553826     -3.64283542675547
  H          -2.63581651859502      6.33237388103933     -5.18128658895492
  H          -3.80125590793984      7.20406192947500     -4.16664658047249
