47
Coordinates from ORCA-job /home/esp/scriptDevelopment/drFrankenstein/11_PCY_CHARMM/04_torsion_scanning/torsion_NH1-CT1-CG321-CG2R61/scans_PCY_conformer_41/PCY_conformer_41_backwards/orca_scan E -79.889822367730
  H          -4.01342743851109     -3.26058102359029      0.76370543652524
  H          -4.10480552520332     -3.14706796686486      3.11219681561465
  H          -2.40134750493956     -0.96301270298138     -1.82447051341990
  H           0.18423152906362      3.35959654197052      0.35988924270701
  H          -2.52649118172907     -2.87591715253443     -0.14676572198151
  H          -0.72180617071107      0.78980414069111     -2.22029560294109
  H          -3.10736047609827      0.59228169008682      2.08263227218942
  H           1.07080508500618      2.15591241318387     -0.58360273418022
  H          -0.78301292000729     -1.82230379583068      5.44949342970500
  H          -1.43845084135093      2.36350897230346      1.68446836432942
  H           0.45024757266225     -1.30563377878715      3.35999192416701
  H          -0.86104240949837      3.98268177872211     -3.46369499216270
  H          -3.06035810612250     -2.78360419147078      5.30601271105454
  N          -1.10934259340859      3.59188821999208     -2.54725897214634
  C          -0.00493616819747      3.54519636167400     -1.75002211635180
  C           1.13448650835023      4.20508738238075     -2.37227471148332
  C           0.12791142468077      2.71041291293509     -0.52110931090406
  O           1.00682982502814      4.72137220578027     -3.50289092474202
  C          -0.96413098279791      1.70147194797761     -0.29546393016973
  C          -1.25081783244110      0.76013158144160     -1.27896748725445
  C          -2.19181349546166     -0.22589972742500     -1.06349817119376
  C          -2.85164890942999     -0.29166471447156      0.15801517846177
  C          -2.58195724533000      0.65154417402833      1.14173169949547
  C          -1.64426457068497      1.63928545726000      0.91206847579526
  O          -3.77036675620559     -1.29831669119217      0.41632885950686
  C          -3.17158018705324     -2.57264230561145      0.68313508732475
  C          -2.41930669134469     -2.49921949354050      1.98802834703442
  C          -3.09673655074222     -2.76821097261075      3.17119294064116
  C          -2.51271765526172     -2.54925837323047      4.40737454507912
  C          -1.23626583011291     -2.01216322712223      4.49048262894104
  C          -0.54529089406440     -1.72080389871908      3.33301503702815
  C          -1.12140530093919     -1.97869860885914      2.08883775484600
  N          -0.31144785972496     -1.69933374963139      0.95135199195244
  O           0.46273538515111     -0.75155105815283      1.01494663968867
  O          -0.38382331807410     -2.43097948481142     -0.03202134351816
  C           3.47847193069486      4.89864005261103     -2.19567187632896
  N           2.29442450915982      4.25113780549205     -1.68619723025356
  H           2.34542201026475      3.85479567429433     -0.76227714978477
  H           3.24570696226691      5.29176831741344     -3.18367603102775
  H           3.77654052355502      5.71768366972299     -1.54098348496738
  H           4.29702801866283      4.18286715917467     -2.27343499171332
  C          -2.44563799166762      3.51475233943091     -2.23522719115931
  O          -2.85733887880530      3.42379661603523     -1.08982082371264
  C          -3.32812823441493      3.57044033679958     -3.44957749154393
  H          -3.18384862977092      4.51067953359117     -3.97577249608206
  H          -3.07963199414701      2.75411963646770     -4.12291256942594
  H          -4.36529014029441      3.48397599597684     -3.14098151363869
