47
Coordinates from ORCA-job /home/esp/scriptDevelopment/drFrankenstein/11_PCY_CHARMM/04_torsion_scanning/torsion_NH1-CT1-CG321-CG2R61/scans_PCY_conformer_41/PCY_conformer_41_backwards/orca_scan E -79.894457445520
  H          -3.25001207797486     -3.62470128815835      0.46513555895905
  H          -3.71510223372315     -3.54426505413834      2.76996172147898
  H          -1.78393612287611     -1.00323782751844     -1.90165571965671
  H          -0.76984397054239      3.86732684259432      0.36882312560570
  H          -1.76142797248121     -2.92316736170472     -0.22722451052777
  H          -0.46990576806526      1.06929956581634     -2.06351040008495
  H          -3.41653625881763      0.31740891742251      1.81021290462644
  H           0.65657729953379      2.84513977648505      0.14257011001178
  H          -1.12599817840310     -1.57293060990596      5.53798501963196
  H          -2.11466267856589      2.40814880558402      1.64181109450453
  H           0.26750668165664     -0.79131012526144      3.64099352019829
  H          -1.01590716789719      4.11464326967762     -3.38191790944326
  H          -3.10651387700681     -2.98816845038334      5.08409806695588
  N          -1.29113907300959      3.87655067422152     -2.42314714341068
  C          -0.19168818189349      3.64831551806249     -1.65232131033602
  C           1.04002782849573      3.85191142055657     -2.39748167997009
  C          -0.31618932636121      3.10644203438028     -0.27481619220685
  O           0.97656799780438      4.21842437275096     -3.59136414280060
  C          -1.19374329787526      1.87737510107682     -0.21488326586700
  C          -1.12293429566345      0.91611940248623     -1.21646466034550
  C          -1.85849171622239     -0.24964194574841     -1.13190359190389
  C          -2.67313108654251     -0.47062789461439     -0.02807982032470
  C          -2.77102359340215      0.49761681989410      0.96431582875501
  C          -2.03770710082425      1.66382870117973      0.86565887758479
  O          -3.38326625952142     -1.65416993451565      0.10680231171265
  C          -2.57215378074739     -2.77134527291513      0.49142988124512
  C          -2.05431524280831     -2.54813120749096      1.89024471537320
  C          -2.82829955159443     -2.96296832855980      2.96721621432659
  C          -2.49273010859652     -2.63675629745238      4.27040548097495
  C          -1.38286726169164     -1.84518429012045      4.52750534662571
  C          -0.60431633950698     -1.40554221143955      3.47742330379571
  C          -0.92327044166688     -1.76734611599781      2.16828134371067
  N          -0.03010435930416     -1.31341541254771      1.15639496204078
  O           0.51221988183773     -0.22551603540422      1.31267483713644
  O           0.19659941151727     -2.03288783059189      0.18756570657325
  C           3.48904003905477      3.83666781401425     -2.42779691369858
  N           2.21782727049901      3.65962229510833     -1.77060839021864
  H           2.23388127895365      3.33551484629318     -0.81741510519623
  H           3.29648230088027      4.19335303830866     -3.43810007307375
  H           4.09063587576707      4.56958690154186     -1.89060135814447
  H           4.03007988742021      2.89090113705415     -2.47494797026629
  C          -2.61449086097162      3.96690921177254     -2.07726686909018
  O          -3.01036551275337      3.86775060124285     -0.92524058949825
  C          -3.51032228419075      4.20718266974704     -3.25910573581364
  H          -3.23750681784717      5.13578859795880     -3.75398043210389
  H          -3.40828780227215      3.39178242835027     -3.97068601816332
  H          -4.54024515179970      4.26567273088844     -2.92096012968218
