47
Coordinates from ORCA-job /home/esp/scriptDevelopment/drFrankenstein/11_PCY_CHARMM/04_torsion_scanning/torsion_NH1-CT1-CG321-CG2R61/scans_PCY_conformer_41/PCY_conformer_41_backwards/orca_scan E -79.893424357780
  H          -3.48705433630319     -3.52786157187666      0.51682128658659
  H          -3.85797196522928     -3.44148253494468      2.83909012748371
  H          -1.95894461160259     -0.98336632333880     -1.88732546953249
  H          -0.52146501067191      3.78101084049804      0.39987097867702
  H          -1.98601899668327     -2.91153063256439     -0.22776108645285
  H          -0.53279484413424      1.00860355039818     -2.09761916081706
  H          -3.34953173356604      0.40737435019485      1.89666947203028
  H           0.80045722138130      2.67408758512353     -0.00084491567233
  H          -1.04459265173115     -1.66558170955197      5.51915089968629
  H          -1.93657324140796      2.41870888147010      1.68005554748973
  H           0.32228911915480     -0.95505637769364      3.57522900587853
  H          -0.97582901534787      4.01780689233242     -3.40854629561050
  H          -3.12696423415646     -2.94813168173461      5.13199311703196
  N          -1.23609434744371      3.77013281244697     -2.44796051450365
  C          -0.12374683380223      3.61572453386025     -1.67682490312433
  C           1.08918702575689      3.93785499457211     -2.41201898048829
  C          -0.18495331560839      3.02206122638100     -0.31505986923866
  O           1.00379326088414      4.28573510901343     -3.60973320996106
  C          -1.13191772682166      1.85014578371165     -0.21936681037512
  C          -1.15821391102612      0.89017033789392     -1.22469064559398
  C          -1.95651817883050     -0.23104837902325     -1.11265410296663
  C          -2.73573513820033     -0.41021817691704      0.02376701360214
  C          -2.73213988864067      0.55490416633961      1.02386265640142
  C          -1.93661737936598      1.67669968291938      0.89772763548932
  O          -3.51160806302552     -1.54882280929623      0.18244913156317
  C          -2.75700811972960     -2.71827740107721      0.52385062677825
  C          -2.17232581955338     -2.54322998813706      1.90300089105795
  C          -2.92911623482368     -2.91940032916851      3.00612700350253
  C          -2.52377766503123     -2.62811337143078      4.29766576723733
  C          -1.35677712543408     -1.91090660298289      4.51739130537343
  C          -0.59263046580315     -1.51099952455471      3.44119986641068
  C          -0.98410857609272     -1.83843726982385      2.14267606705068
  N          -0.10349884590148     -1.43176000706108      1.10012197982402
  O           0.51342152385818     -0.38259985241072      1.24433573190683
  O           0.03861984194556     -2.15357382273922      0.11709344191566
  C           3.52772780559608      4.17287462319432     -2.41121076887386
  N           2.27186249276114      3.87557286567973     -1.76779412319243
  H           2.30372083283499      3.60058327136465     -0.79970679557262
  H           3.31569441053902      4.47212610528224     -3.43615319529608
  H           4.03482127007481      4.98613354622547     -1.89232988382601
  H           4.17035035217001      3.29186763444627     -2.41669518308341
  C          -2.55956349910822      3.82692322303656     -2.09320660974943
  O          -2.93942803592237      3.76907246777994     -0.93358046991161
  C          -3.47309396913533      3.97877622597593     -3.27608692821456
  H          -3.23927149558683      4.89348183640763     -3.81497640662430
  H          -3.34518120394389      3.13597709974861     -3.95061415508322
  H          -4.50186867729177      4.01395872003051     -2.93135906921302
