47
Coordinates from ORCA-job /home/esp/scriptDevelopment/drFrankenstein/11_PCY_CHARMM/04_torsion_scanning/torsion_NH1-CT1-CG321-CG2R61/scans_PCY_conformer_41/PCY_conformer_41_backwards/orca_scan E -79.890982226100
  H          -4.02725685256362     -3.26837690858155      1.24471770648395
  H          -4.24408032615383     -2.40489414964483      3.41854444837355
  H          -2.23020700495742     -2.02503033855250     -1.86292020371466
  H           1.20915057882962      1.73379441774667     -1.03001997092621
  H          -2.47692962237281     -3.23292697403907      0.35968477827088
  H          -0.48407886175207     -0.55559207278461     -2.77278680369268
  H          -2.99657430306212      0.79193091976921      1.24548358961855
  H           0.76466239912915      1.40438318724631     -2.70993253385600
  H          -1.01650819331441     -0.44389707164046      5.41601749369315
  H          -1.22529820096480      2.26074766790481      0.35014987724262
  H           0.34949365091187     -0.64601125950832      3.35555782686955
  H          -1.22989911555346      4.74399839388568     -1.92407352060987
  H          -3.31369529009409     -1.36818700023231      5.44212690260970
  N          -1.21220957353136      3.72926393964221     -2.07722323270995
  C           0.05860261825635      3.25791452941722     -1.94073549533950
  C           1.02020555040197      4.33895883491775     -1.78343095865859
  C           0.40074336471011      1.81855187277364     -1.76257428090612
  O           0.61981902893379      5.52241566067807     -1.77241400206509
  C          -0.73227404156013      0.95558319899439     -1.27488178725078
  C          -1.02753502210164     -0.25306134993109     -1.89110111772759
  C          -2.01282308925619     -1.07957362830197     -1.38904229336014
  C          -2.71586195248860     -0.70493296299704     -0.25057334262685
  C          -2.44103514242416      0.51106567798154      0.36359354268391
  C          -1.45307124480970      1.32965612188894     -0.14669782993691
  O          -3.68608861046845     -1.53388715649754      0.29271377447025
  C          -3.15539832034262     -2.66140706500983      0.99973777145316
  C          -2.47673648663446     -2.17770126291297      2.25674736572008
  C          -3.22883365907422     -2.04088223310144      3.41736894231266
  C          -2.70868441585964     -1.44325102402767      4.55292519858588
  C          -1.42143038597418     -0.92605632180128      4.54151221794202
  C          -0.65669098082071     -1.03321773279029      3.39876871037998
  C          -1.16970925148594     -1.67068343625718      2.26868416556981
  N          -0.28615982907897     -1.78605115713343      1.15748180557295
  O           0.51289825998065     -0.87758818803424      0.96207490677412
  O          -0.32480202000843     -2.79686960568855      0.46201874989301
  C           3.36414577765003      5.01315145214146     -1.54419927567905
  N           2.32566396895706      4.01990800277375     -1.66919101706768
  H           2.61311875142148      3.05768680567794     -1.73947416844041
  H           2.88761098861589      5.99056111957326     -1.49490406768002
  H           3.94056871307437      4.84211469659320     -0.63524712810754
  H           4.03152165178126      4.97997022704217     -2.40592070849888
  C          -2.32626823547456      3.14777603129350     -2.63158808591062
  O          -2.30744260165404      2.04733670931811     -3.16057704836913
  C          -3.54708539697742      4.01629161800103     -2.52565451972765
  H          -3.75559131275715      4.23124132399429     -1.48078998687819
  H          -3.38547385154113      4.95566252916944     -3.04838634009023
  H          -4.39346210754118      3.49808396104360     -2.96554005468941
