47
Coordinates from ORCA-job /home/esp/scriptDevelopment/drFrankenstein/11_PCY_CHARMM/04_torsion_scanning/torsion_NH1-CT1-CG321-CG2R61/scans_PCY_conformer_41/PCY_conformer_41_backwards/orca_scan E -79.900938255350
  H          -2.13665355280438     -3.87007212743502      0.58165672716067
  H          -2.20885351633984     -4.01668477372811      2.92018948548259
  H          -2.14270552161419     -1.01185283630106     -1.90357785112079
  H          -2.50089510315123      4.02403398737039     -0.43269702542612
  H          -1.08749850822370     -2.70026639643948     -0.26624344321080
  H          -1.56302369394877      1.34446941999273     -2.28250430757461
  H          -3.21993257602440     -0.11339089204164      2.12360283787758
  H          -0.98553087251821      3.68034220563747      0.41373638137315
  H          -0.02641495081452     -1.34193351345949      5.43649368860906
  H          -2.61424774612520      2.25221335105816      1.75560413739041
  H           0.69401918955671     -0.07800465560123      3.42989161967912
  H          -0.69411876216400      4.44850648533144     -3.49957511221925
  H          -1.45780440028303     -3.34334977100022      5.15972315344975
  N          -1.37300919220148      4.39867617322943     -2.73061858334716
  C          -0.85865600369222      3.67927749392317     -1.70149778129186
  C           0.47210010823599      3.16591312961645     -2.00249403959925
  C          -1.60140584908788      3.40351814262256     -0.44701411120986
  O           1.00077997873207      3.44863610365225     -3.09935638044696
  C          -2.01904405011638      1.95865923175983     -0.27884377740226
  C          -1.92258816108595      1.03542912500327     -1.31221335283481
  C          -2.25100846076468     -0.29112847612970     -1.10728295423636
  C          -2.69242715857900     -0.70953500681664      0.14150839605089
  C          -2.85381426660965      0.21893991748914      1.16433142902817
  C          -2.51614065835586      1.54079506249059      0.95083203369841
  O          -2.95929426541734     -2.04783898525958      0.38337123803629
  C          -1.77939801442307     -2.84018862556108      0.56981111134578
  C          -1.14907759536360     -2.48484733853644      1.89314616660728
  C          -1.55140327191334     -3.16927328013980      3.03355475012656
  C          -1.13944105847128     -2.78047621995737      4.29711758272075
  C          -0.33646067302696     -1.66011455906763      4.45476763025489
  C           0.06632953047379     -0.95119972220005      3.34280391858176
  C          -0.31850388784022     -1.36808334290647      2.06733109478954
  N           0.18936198458348     -0.60601491959108      0.98130324870367
  O           0.34019315957596      0.60267982508819      1.15051982285197
  O           0.49748901772902     -1.16563490530661     -0.06866582746006
  C           2.34890688632598      1.76774023073594     -1.30733377359675
  N           1.08784933808028      2.42297496887223     -1.06561539939135
  H           0.58331865617219      2.10988432849236     -0.24617148548116
  H           2.72962491872629      2.10084218084927     -2.27094196245895
  H           3.05647187504518      2.02611987056836     -0.52003507591426
  H           2.21296815232327      0.68408869021715     -1.32253155559757
  C          -2.57236747675910      5.04638318581396     -2.88550629074461
  O          -3.44280999908789      5.06868069819074     -2.02473416210890
  C          -2.69713923293345      5.72309650261906     -4.21976554517838
  H          -1.91202730774843      6.46629369223132     -4.33452819248752
  H          -2.60013292588325      4.99241364389080     -5.01885139506846
  H          -3.66657408218765      6.20725270073240     -4.28666706841019
