47
Coordinates from ORCA-job /home/esp/scriptDevelopment/drFrankenstein/11_PCY_CHARMM/04_torsion_scanning/torsion_NH1-CT1-CG321-CG2R61/scans_PCY_conformer_41/PCY_conformer_41_backwards/orca_scan E -79.893213669150
  H          -4.03398820657106     -3.14711987669561      1.47279126218840
  H          -4.01931016056116     -2.23650808060397      3.63913404390678
  H          -2.49392223769034     -2.00650823548012     -1.81104825284328
  H           1.17851911004049      1.51314203953276     -1.46154164815363
  H          -2.57372563877717     -3.17690377041967      0.44581894467738
  H          -0.79002661358794     -0.60721269574226     -2.89780715242160
  H          -2.88464579200163      0.87625320740307      1.30737775737657
  H           0.39875269664406      1.40603507969624     -3.04776709057441
  H          -0.55547437757709     -0.35723631572825      5.28897287674464
  H          -1.15656261614380      2.27372880171270      0.23165453510109
  H           0.60566961679795     -0.64456316894415      3.11614641228962
  H          -1.28620407985506      4.70477774624737     -2.02324671946153
  H          -2.87059068383823     -1.19739650677536      5.54582811882052
  N          -1.24441741091424      3.70874288092641     -2.26408298217076
  C          -0.00745328021237      3.20401649554980     -1.99774051437508
  C           0.91372984514613      4.23868441871749     -1.55501897131887
  C           0.26536684229403      1.74235116490208     -2.01358602416130
  O           0.50535328508024      5.41480646459615     -1.44529939121056
  C          -0.84944266587016      0.92659899325159     -1.40456826913796
  C          -1.24139150253741     -0.27707197509498     -1.97536586768677
  C          -2.20360460872068     -1.06314516790826     -1.37348551567795
  C          -2.78772951002192     -0.65050008805468     -0.18176533834577
  C          -2.42036353517948      0.56425663105533      0.38426007842587
  C          -1.45657552120435      1.34291512998904     -0.22630402939503
  O          -3.72948880566314     -1.43992739337271      0.46085896265808
  C          -3.17034837915399     -2.57337140755519      1.13601311269377
  C          -2.36109463758304     -2.09259727493544      2.31445950949060
  C          -2.99689041977816     -1.90885066479665      3.53654254131713
  C          -2.35356319257723     -1.31011978412499      4.60651753465100
  C          -1.05604096470535     -0.83980696059455      4.46572107818156
  C          -0.40480690798522     -0.99449763894916      3.25984515291520
  C          -1.04207011205874     -1.63249721485135      2.19519872761286
  N          -0.27013394736898     -1.79832641758303      1.00965634905992
  O           0.53924854578096     -0.92357295496844      0.72380769241739
  O          -0.40971247382113     -2.81763488622105      0.34006087670704
  C           3.18362683674011      4.85354152528638     -0.86938300339369
  N           2.19030448424747      3.89592560478501     -1.28906667254316
  H           2.49535958756888      2.94679104536302     -1.42995739458757
  H           2.69403116393415      5.82059124865127     -0.76891090726901
  H           3.60941065612698      4.55862334091970      0.08954477539673
  H           3.98031293690035      4.92721003344238     -1.61021120741667
  C          -2.29935489802800      3.15432244668388     -2.94252586771288
  O          -2.24377001683093      2.05449883348866     -3.47229976240589
  C          -3.50819710934258      4.04554317829936     -2.96931405281167
  H          -3.82801444042767      4.26313478697364     -1.95355926303069
  H          -3.27180108601922      4.98237095099364     -3.46757966360797
  H          -4.30995977469423      3.54447643093295     -3.50274478091845
