47
Coordinates from ORCA-job /home/esp/scriptDevelopment/drFrankenstein/11_PCY_CHARMM/04_torsion_scanning/torsion_NH1-CT1-CG321-CG2R61/scans_PCY_conformer_41/PCY_conformer_41_backwards/orca_scan E -79.887096410090
  H          -4.22161021290556     -3.13350480137364      0.98252146950629
  H          -4.16223535258672     -2.95283485568017      3.32803312229663
  H          -2.60458728285166     -1.04005005669277     -1.76307993037363
  H           0.55756326553809      2.97586889758075      0.18874662270069
  H          -2.76854276086206     -2.88533412826923     -0.02477220981435
  H          -0.83097754341674      0.57303526856153     -2.31664962210841
  H          -2.96120074353042      0.68185156061974      2.12133065909315
  H           1.09368003463146      1.85746870542783     -1.07027529080490
  H          -0.61267313318419     -1.83529315297218      5.42657805838840
  H          -1.19355762567407      2.31086672041768      1.56730230610089
  H           0.52637849824966     -1.46581485595163      3.25401184639655
  H          -0.82303668884252      4.13807151469443     -3.44383647977851
  H          -2.96143751723984     -2.61899669409909      5.44500954154491
  N          -1.06973322325632      3.57882339395444     -2.61652079124894
  C           0.01221258371634      3.51010536014951     -1.78910732876290
  C           1.09360238632818      4.36248249193094     -2.26838885732157
  C           0.25195174275650      2.47720990605054     -0.73695226566813
  O           0.91062931331822      5.07914483665855     -3.27592921134551
  C          -0.88856987440534      1.55446917984557     -0.41229953933348
  C          -1.30012225049986      0.60717844513876     -1.34416338672506
  C          -2.29522465984601     -0.29887257250447     -1.04111905140318
  C          -2.88365706023914     -0.27738359265472      0.21789406672270
  C          -2.48918696834293      0.67303814409007      1.15071026333692
  C          -1.49761846295639      1.58075171586890      0.83344146548314
  O          -3.85559214124869     -1.20453918575072      0.56451308302902
  C          -3.33761521364604     -2.51338380125377      0.83235687315431
  C          -2.50400937921861     -2.46517208977768      2.08821325667144
  C          -3.12652096192029     -2.65219423096768      3.31651142774677
  C          -2.45328105619888     -2.44956960481223      4.50935638028084
  C          -1.13688483127799     -2.01185349231997      4.50180140215699
  C          -0.49776845866123     -1.80253897824533      3.29772271408363
  C          -1.16678382183999     -2.04434387325933      2.09762554485225
  N          -0.40829147751734     -1.85518630234613      0.90707617739078
  O           0.43596374475186     -0.96743894803111      0.89827094586048
  O          -0.59413415674231     -2.60263362170741     -0.04877444979922
  C           3.38358647754749      5.18088539343731     -1.96789947752619
  N           2.26092294800734      4.35563590092825     -1.59411113751568
  H           2.36791546471595      3.77095314413669     -0.78197551407863
  H           3.10337033537909      5.74510061806337     -2.85556232564120
  H           3.63228781828406      5.87259983899994     -1.16282559272712
  H           4.25145293238346      4.56035437874494     -2.19120703749160
  C          -2.41410090195323      3.38853765192754     -2.39635348582290
  O          -2.88731408447529      3.12487053963435     -1.30334742616830
  C          -3.22773979292169      3.56293716439984     -3.64806151583063
  H          -3.15050241278980      4.58831451600717     -4.00146965936282
  H          -2.86108836769341      2.89919689470740     -4.42638763331666
  H          -4.26690912686306      3.33515665669323     -3.43192800682724
