47
Coordinates from ORCA-job /home/esp/scriptDevelopment/drFrankenstein/11_PCY_CHARMM/04_torsion_scanning/torsion_NH1-CT1-CG321-CG2R61/scans_PCY_conformer_41/PCY_conformer_41_backwards/orca_scan E -79.888478867330
  H          -4.13556793022166     -3.18488999769139      0.86836637162786
  H          -4.14262542432482     -3.04702050678316      3.21777663429617
  H          -2.51236129762170     -0.98312845332847     -1.79134792337326
  H           0.37692351592998      3.18608849531379      0.29581482137126
  H          -2.66591058471819     -2.87002960442023     -0.09530772132179
  H          -0.77634208582648      0.69632482314600     -2.25928559338706
  H          -3.03570271182716      0.64338119686503      2.11536366867654
  H           1.09857146173533      2.00538334653516     -0.80318794869072
  H          -0.68882307002723     -1.84888366901372      5.42862057703511
  H          -1.30998880610708      2.34152115470144      1.64529779565679
  H           0.49282018109728     -1.40148240025338      3.29383038253723
  H          -0.83285509169416      4.03132118204640     -3.46607980424224
  H          -3.00899043340272     -2.71185332797786      5.37126780495118
  N          -1.08172051897653      3.56696223552247     -2.58393571240787
  C           0.01026864664460      3.52674359661888     -1.76847308432300
  C           1.11980383728151      4.28741922592137     -2.32764958081663
  C           0.19764174687027      2.60087834907609     -0.61270806163530
  O           0.96660760631855      4.89756725108908     -3.40740952522366
  C          -0.92311269475420      1.63772993175460     -0.33933904674684
  C          -1.27626026120295      0.69698732598933     -1.30170224791931
  C          -2.24928592259319     -0.24707335275979     -1.04614129680253
  C          -2.87366508371071     -0.27179251153363      0.19546666550645
  C          -2.53693565590775      0.67076936543370      1.15860326602699
  C          -1.56790568806549      1.61727184545526      0.88851940116986
  O          -3.82363963408569     -1.23741452847990      0.49438668285204
  C          -3.26921443291383     -2.53327649180399      0.75291856571581
  C          -2.47052967163256     -2.48089943650397      2.03101557107755
  C          -3.11787600457867     -2.71135197866552      3.23891468646049
  C          -2.48296712585868     -2.50813897303886      4.45248643041793
  C          -1.18256410153388     -2.02610684871501      4.48734964811924
  C          -0.51997498997189     -1.77338634356658      3.30446833898295
  C          -1.14906496950002     -2.01556251621815      2.08306027636901
  N          -0.36732547425293     -1.77929733362200      0.91623899444570
  O           0.44571329005606     -0.86307089044823      0.94434378311793
  O          -0.50247088073397     -2.51594527092468     -0.05653375034910
  C           3.43312176372889      5.06066730818849     -2.08956048076016
  N           2.28091136359524      4.31653216950738     -1.64268667962869
  H           2.35516495966353      3.83359076144508     -0.76268932406198
  H           3.17963853196395      5.53245135720500     -3.03717498528507
  H           3.69689011472834      5.82851738099921     -1.36205585894294
  H           4.28260404881399      4.39268173984287     -2.23249491732656
  C          -2.42358149169326      3.44141857876986     -2.31007773061468
  O          -2.86491903351392      3.29025566897276     -1.18262962752984
  C          -3.27371742933960      3.52815050801257     -3.54589327141655
  H          -3.15261828096551      4.50107633915570     -4.01563767976575
  H          -2.97439329372632      2.76082005952488     -4.25504724235502
  H          -4.31476099314466      3.38606323865611     -3.27303127148753
