47
Coordinates from ORCA-job /home/esp/scriptDevelopment/drFrankenstein/11_PCY_CHARMM/04_torsion_scanning/torsion_NH1-CT1-CG321-CG2R61/scans_PCY_conformer_41/PCY_conformer_41_backwards/orca_scan E -79.896487576090
  H          -2.67266529361039     -3.73688708094845      0.52755497905260
  H          -2.74223405683971     -3.66106835456959      2.88073541006201
  H          -2.23271718000910     -0.84380534297829     -1.93560169249581
  H          -1.77788730356588      4.09752568751452      0.15760896772274
  H          -1.55059223392870     -2.72660935653406     -0.42398501498545
  H          -1.26299010920364      1.39598553344943     -2.13434140657264
  H          -3.53552068840081      0.05255914213030      2.02404054250433
  H          -0.28048988211005      3.26053928232389      0.58779289714093
  H          -0.11050515861691     -1.17222664898956      5.14503373513957
  H          -2.59287317877978      2.32728956266777      1.81695805954039
  H           0.74047171162549     -0.19316823304069      3.03438837779269
  H          -0.77526438836615      4.23871013467010     -3.36263990519741
  H          -1.83737475942769     -2.94534608055765      5.04903557816057
  N          -1.32309500734834      4.07912636886161     -2.51239330955126
  C          -0.52636719596793      3.69379471626962     -1.48083635219839
  C           0.84930654387625      3.45904293424424     -1.89608230789998
  C          -1.07400282633263      3.31993400708744     -0.15711412307735
  O           1.23752933540241      3.87484726929972     -3.00711248447791
  C          -1.83402651517510      2.01042686910619     -0.15784557980598
  C          -1.77607049789892      1.12402691727712     -1.22418858220477
  C          -2.31836514865110     -0.14306794510128     -1.11850542417369
  C          -2.91128312300670     -0.54221734119718      0.07153642390060
  C          -3.04650612482854      0.36690991259435      1.11505810908710
  C          -2.51701060064960      1.63567573088499      0.99295405628772
  O          -3.31953888876577     -1.85466263953329      0.25725262662590
  C          -2.21525406698538     -2.75086846051963      0.44451927052245
  C          -1.49209579664759     -2.39238872968955      1.71972816555237
  C          -1.96046692824436     -2.91884276384576      2.91732156670978
  C          -1.46066650600086     -2.50421303644604      4.14035647340544
  C          -0.49249597781794     -1.51245983870190      4.19666143424682
  C          -0.01684990450810     -0.96149691967024      3.02569254401879
  C          -0.49620307881645     -1.40562259831294      1.79188014817831
  N           0.09748731817193     -0.81306883680011      0.64423604093720
  O           0.47218300146443      0.35503589348977      0.72585781838554
  O           0.25125218854729     -1.48130281120436     -0.37614567637476
  C           3.00335429457357      2.42328606768471     -1.39687993601191
  N           1.65686033875900      2.79812900000050     -1.03814875480530
  H           1.24056835136138      2.27173259637968     -0.28226094561323
  H           3.27487474258983      2.95877200166416     -2.30501012785794
  H           3.68452112673374      2.69317246698170     -0.59106366429354
  H           3.06961796447479      1.34865145481362     -1.57681204887614
  C          -2.66757779730927      4.35743257811983     -2.53711405419763
  O          -3.38672458467991      4.26087578459314     -1.55350403350446
  C          -3.14831044334002      4.77911118444820     -3.89589321253921
  H          -2.62978460838035      5.68074407573695     -4.21224703395906
  H          -2.94914470049221      3.99310426096987     -4.62007622640857
  H          -4.21606236287421      4.97085158537709     -3.85437132789137
