47
Coordinates from ORCA-job /home/esp/scriptDevelopment/drFrankenstein/11_PCY_CHARMM/04_torsion_scanning/torsion_NH1-CT1-CG321-CG2R61/scans_PCY_conformer_41/PCY_conformer_41_backwards/orca_scan E -79.895318137540
  H          -2.99977213434848     -3.71423337348620      0.44728947769410
  H          -3.52491741712431     -3.63273521279737      2.74090215689197
  H          -1.63657136968097     -1.02078288257462     -1.89819272973977
  H          -1.04355939518138      3.93422527903361      0.31678244110129
  H          -1.54597283689392     -2.92284122853088     -0.22132474492817
  H          -0.45143504037396      1.12851843449592     -2.03512216467388
  H          -3.48147344936273      0.22197424495229      1.74025428314123
  H           0.46360754461669      3.01230664261536      0.25759155282741
  H          -1.12630216531817     -1.47316231358582      5.53977946029536
  H          -2.30983019707598      2.39128357012885      1.59526960380912
  H           0.26101365069464     -0.63087312116672      3.66442927057681
  H          -1.03453028507459      4.24361176498427     -3.37104841980215
  H          -3.00520914339688     -3.01294308602923      5.06045326447990
  N          -1.34733972647964      4.00180679193837     -2.42520979098305
  C          -0.28540896149146      3.68453210437174     -1.63463881905594
  C           0.97397672450166      3.77410524629617     -2.35390071741458
  C          -0.48490340759845      3.18451376888653     -0.25152769592312
  O           0.97672126761120      4.19350025572858     -3.53155412164042
  C          -1.28598923961892      1.90166564351303     -0.21780069853505
  C          -1.12136944661129      0.94102271407096     -1.20837647951562
  C          -1.78533118951603     -0.26817784971670     -1.13831813169308
  C          -2.62118356696128     -0.53301578052125     -0.06050099233384
  C          -2.81820862573555      0.43613872983288      0.91634714608862
  C          -2.15758039543183      1.64601368962647      0.83126197432846
  O          -3.25457639149258     -1.76012369871106      0.06530951632092
  C          -2.38013183778747     -2.81784005070267      0.47848846095589
  C          -1.90807148004066     -2.54754221665296      1.88532572538222
  C          -2.67986560238588     -2.99606982019047      2.95016503457468
  C          -2.39530736336117     -2.63425882356254      4.25613587441569
  C          -1.34231907136526     -1.77292718920371      4.52755345450389
  C          -0.56777491335591     -1.29914629212587      3.48941868308312
  C          -0.83334529050456     -1.69562058105534      2.17835215117751
  N           0.05446286036290     -1.19998435062736      1.18163076037937
  O           0.52670766068246     -0.07938406498488      1.33617982381770
  O           0.34597130936210     -1.91417596961807      0.22630192292941
  C           3.39940001343064      3.43931038345546     -2.35944741083024
  N           2.10879781227262      3.41941171951969     -1.71636052846174
  H           2.05666049955964      2.98838438266454     -0.80747482241109
  H           3.28448444565581      3.92810548418999     -3.32533502141940
  H           4.10955048354908      3.99525742167890     -1.74859211621836
  H           3.77147960403251      2.42489832977255     -2.51142503578327
  C          -2.67798305016988      4.12697576403667     -2.12074392066587
  O          -3.12478637032073      3.96251538165951     -0.99491030504339
  C          -3.51511500024260      4.48889442933892     -3.31477340648475
  H          -3.16703294708668      5.42282998078139     -3.74833581900810
  H          -3.43975779506925      3.70774392409366     -4.06713243382050
  H          -4.55086876987344      4.59426182417738     -3.00714571238925
