47
Coordinates from ORCA-job /home/esp/scriptDevelopment/drFrankenstein/11_PCY_CHARMM/04_torsion_scanning/torsion_NH1-CT1-CG321-CG2R61/scans_PCY_conformer_41/PCY_conformer_41_backwards/orca_scan E -79.898209699050
  H          -2.53262428422764     -3.77380709038984      0.53489709222653
  H          -2.59936477869449     -3.76464795962239      2.88632488779744
  H          -2.21466780342493     -0.86953925844224     -1.93379783938482
  H          -1.95968611473372      4.10960546554805      0.02048068563451
  H          -1.42533782035466     -2.72188989222451     -0.38912858142152
  H          -1.34090714566047      1.40813838578510     -2.17028214953244
  H          -3.43703971937580     -0.00409390418582      2.05842198079209
  H          -0.43536147541139      3.38940803080330      0.56458308490898
  H          -0.09411458434251     -1.20753106376378      5.21727494989385
  H          -2.57853148425955      2.30054307753909      1.81928465968146
  H           0.72127807589838     -0.14523418203988      3.13252313429257
  H          -0.75872668339593      4.28844915162327     -3.40486938015161
  H          -1.73757640840450     -3.05479664491981      5.07405031942827
  N          -1.34205302258254      4.16075106261310     -2.57202172746059
  C          -0.60339456841397      3.69515245193216     -1.53132217104184
  C           0.76363933777040      3.37501049523203     -1.91692856072959
  C          -1.19690788845065      3.36166899046833     -0.21592713418423
  O           1.19440017841487      3.75119606383075     -3.02693925783067
  C          -1.87245479103971      2.00614814733480     -0.17852478803374
  C          -1.81145240747152      1.11768137939800     -1.24293732751976
  C          -2.30126518347931     -0.16891661075179     -1.11683291055705
  C          -2.85019898222582     -0.58327365625672      0.08908229128986
  C          -2.98425956686374      0.32332265191525      1.13530297221086
  C          -2.50297117300080      1.60925917433127      0.99495844890724
  O          -3.22355194523403     -1.90476601646250      0.28216746791419
  C          -2.09952972707331     -2.77551432868290      0.47087812242931
  C          -1.40194728749137     -2.41621746515275      1.75951577763437
  C          -1.85222299677342     -2.98880462069028      2.94276778680828
  C          -1.37703878153438     -2.57799197425831      4.17688451503976
  C          -0.45535231401599     -1.54456719255377      4.25963995258766
  C           0.00034402318091     -0.94730782034191      3.10342540955693
  C          -0.45241010430694     -1.38747670829084      1.85834690217727
  N           0.11736476948110     -0.74526748460084      0.72558074637027
  O           0.42448718027973      0.44073518809010      0.82978392279383
  O           0.31947937754315     -1.38744390069840     -0.30276860147538
  C           2.84213351079615      2.22232802433020     -1.36297727049952
  N           1.51595070696647      2.68517566457951     -1.03374470199115
  H           1.06227345679273      2.20658755860236     -0.26688393653064
  H           3.15939751998128      2.71937820910122     -2.27809349881304
  H           3.52668128567654      2.46731451576367     -0.55211603251316
  H           2.84456953713408      1.14167024700924     -1.51868735397265
  C          -2.66173798159813      4.53364645361700     -2.63550443223113
  O          -3.42342194499815      4.46296132337138     -1.68146356583975
  C          -3.06148603591347      5.02549938488604     -3.99683378274602
  H          -2.46642368433688      5.89333899788700     -4.26994260408872
  H          -2.89615441658969      4.24604130370497     -4.73644820093592
  H          -4.11281585423630      5.29604637503206     -3.98516930089053
