18
Coordinates from ORCA-job /home/esp/scriptDevelopment/drFrankenstein/outputs/torsion_3-4-5-6/conformer_6_backwards/orca E -18.825409279400
  C           0.96391095868048     -0.59176366731671     -1.89155614938916
  C           1.37932154435929      1.33075954634217      1.51182746574369
  C           0.96825744838478      0.24538372432752      2.08334294457312
  C           0.56376755854011     -0.84011430339355      2.65898448111589
  C           0.70955800414617      0.69254882498331     -2.02933199516704
  C          -2.36277242361114     -0.40456717483061     -0.12844363259246
  H           1.14442986669848     -1.23228805985665     -2.74011794859952
  H          -2.90836822553020      0.45155270298047     -0.50289038941830
  H           2.24367805824615      1.33925212450123      0.86745278754580
  H           0.99778731110204     -1.06232034982704     -0.92241665273197
  H           0.87659205263007      2.27345554705571      1.65900024521186
  H          -0.15615878953266     -1.49807647897026      2.19942267632298
  H           0.92815216728798     -1.13251951977545      3.63078093418624
  H           0.67488471549173      1.16737572534850     -2.99640816046078
  H           0.52075686786061      1.32671140089717     -1.17909407507574
  H          -1.58708521067875     -0.06885875596629      0.54723377408154
  H          -3.04336187086822     -1.06284292685912      0.39628679339357
  H          -1.91235003320676     -0.93368835964039     -0.95807309873971
