18
Coordinates from ORCA-job /home/esp/scriptDevelopment/drFrankenstein/outputs/torsion_3-4-5-6/conformer_6_backwards/orca E -18.825790785050
  C           0.65004377999787      0.29160352207675     -2.01235677109977
  C           1.22763290138926      0.83386747246525      1.85246892014714
  C           0.83287242348720     -0.39162881654465      1.72752417794101
  C           0.43192876225185     -1.61451309071065      1.59354050201921
  C           1.75929404463011     -0.40403422801215     -1.87606418576128
  C          -2.60503837307022      0.61304883290106      0.36186080151372
  H           0.26032257875720      0.56630218666781     -2.97915047319726
  H          -2.86703883667582      0.21071576924294     -0.60824867081799
  H           2.27216743102696      1.08824770651073      1.93159033075447
  H           0.07691650727985      0.61621668362107     -1.15986141538616
  H           0.52871594774604      1.65416844279583      1.88349591902850
  H           0.30852633815264     -2.06770238021225      0.62249203759338
  H           0.20268352145510     -2.23440184126451      2.44541793582627
  H           2.33519489421605     -0.73501104102014     -2.72521087545664
  H           2.14226220012270     -0.67130627389838     -0.90492667945741
  H          -1.77759441559990      0.05090718913146      0.77608167366686
  H          -2.31955202456819      1.65170284264783      0.25376594586612
  H          -3.45833768059863      0.54181702360199      1.02358082681992
