18
Coordinates from ORCA-job /home/esp/scriptDevelopment/drFrankenstein/outputs/torsion_3-4-5-6/conformer_6_backwards/orca E -18.825821482630
  C           1.12667656888794     -0.58445878873879     -1.75486998465150
  C           1.20582416856327      1.30946012983500      1.47695357536907
  C           0.93100987971957      0.16434871144878      2.01255849442830
  C           0.65693390653889     -0.98232716687784      2.54522063674965
  C           0.67976359194215      0.59974071898320     -2.11651070154843
  C          -2.38669713409931     -0.23872540231061     -0.05258334380445
  H           1.57211629802943     -1.26610622637524     -2.46152639707549
  H          -2.85956928233440      0.67714770445488     -0.38211030488506
  H           2.02559730221149      1.43058348127467      0.78742114386189
  H           1.06777810984333     -0.92478155255600     -0.73407161536441
  H           0.62589969169790      2.19137254380643      1.69794188708425
  H          -0.02249248569435     -1.67901561759804      2.08064659976400
  H           1.09574701157304     -1.29124172962190      3.48027605852960
  H           0.73704429505742      0.94702126685170     -3.13541737841375
  H           0.23025409831031      1.27571250962490     -1.40807545059143
  H          -1.54735105162636     -0.00119582591366      0.58802106655280
  H          -3.10337470175022     -0.83628571846153      0.49582287315686
  H          -2.03416026686995     -0.79124903782596     -0.91369715916192
