18
Coordinates from ORCA-job /home/esp/scriptDevelopment/drFrankenstein/outputs/torsion_3-4-5-6/conformer_6_backwards/orca E -18.825482115220
  C           1.15117929852685     -0.48225114788985     -1.71391459589940
  C           1.07665444161454      1.26266991652823      1.60388258546719
  C           0.93226267950826      0.06746921854901      2.07800069176700
  C           0.78760350244252     -1.13118304486875      2.54313970888726
  C           0.61471046411149      0.50780991519907     -2.39619992269916
  C          -2.36243750082406     -0.10781458417750      0.00505239478884
  H           1.68835414285332     -1.28382341206599     -2.19483213617047
  H          -2.56003403017431      0.92055545974483     -0.26810166677607
  H           2.02968768863801      1.62004445554653      1.24830202810530
  H           1.07863042207815     -0.53323226472218     -0.63998082963781
  H           0.25106679256329      1.95314432462099      1.54151797603114
  H           0.52810725496203     -1.96221093855124      1.90624639898885
  H           0.91885462948941     -1.35272756975320      3.58988861944376
  H           0.68025094747092      0.56684999468274     -3.47051414321526
  H           0.07659851703177      1.30451509574474     -1.90945392321220
  H          -1.44720054626808     -0.15993770390619      0.57954632496464
  H          -3.18606722323472     -0.48668725380809      0.59608119565690
  H          -2.25722148078922     -0.70319046087316     -0.89266070649050
