18
Coordinates from ORCA-job /home/esp/scriptDevelopment/drFrankenstein/outputs/torsion_3-4-5-6/conformer_6_backwards/orca E -18.825459870370
  C           1.14275705420878      0.46932277968675     -1.79418324170534
  C           1.05246855687045      1.07243424672365      2.15101291471429
  C           0.83072554544049     -0.19934335330412      2.06412443499057
  C           0.60771721959099     -1.47005382555562      1.96678537297595
  C           0.77602773142758     -0.65106049839707     -2.37950354664078
  C          -2.31154521717110      0.38855723256249      0.06474573326544
  H           1.58808512921931      1.27901407883696     -2.34877556565080
  H          -1.71767282325696      0.28146401375009     -0.83329031145162
  H           2.03874520303482      1.48768847031543      2.02130840208251
  H           1.00582176217362      0.63591388201274     -0.73877775378488
  H           0.25999869636399      1.77396942225322      2.35986671241454
  H           0.35809130725821     -1.93159821645364      1.02539825510979
  H           0.65500093977526     -2.12170653098324      2.82425889435111
  H           0.91190283879125     -0.81728947454040     -3.43590177890597
  H           0.33126672664205     -1.46475606774458     -1.82992460366375
  H          -1.68315887329779      0.21513840325040      0.92779534597006
  H          -2.72774604656662      1.38643730974160      0.10640533746411
  H          -3.11748575050427     -0.33413187215467      0.05465539846480
