18
Coordinates from ORCA-job /home/esp/scriptDevelopment/drFrankenstein/outputs/torsion_3-4-5-6/conformer_6_backwards/orca E -18.825729476820
  C           1.23151925130926     -0.58361454786382     -1.81040624771486
  C           1.03651037136659      1.27679768617688      1.52945096700500
  C           0.87577537566803      0.10154634871836      2.04512869143569
  C           0.70753841854191     -1.07078779517735      2.56366136016767
  C           0.68842266181598      0.52852218352873     -2.26094987486359
  C          -2.36853163956036     -0.10977023012164      0.01867169935023
  H           1.76419840364298     -1.26043985722777     -2.45885137753920
  H          -2.78376147297448      0.83264965842117     -0.31637124839312
  H           1.88031176041773      1.51860881254708      0.90351584292091
  H           1.16566625794006     -0.87092536927603     -0.77345279548793
  H           0.32271304317815      2.06834801274849      1.69850190363485
  H           0.16753845423217     -1.84963385031311      2.04888296375225
  H           1.10529345630395     -1.32388766909521      3.53373206303412
  H           0.75274994618401      0.81581422029630     -3.29826132690154
  H           0.15438374941980      1.20636980837962     -1.61451105675279
  H          -1.44880480747277      0.06633476824983      0.56287340045018
  H          -3.07984261823603     -0.60252259699758      0.67000005918281
  H          -2.17068061177683     -0.74340958299396     -0.83561502328070
