18
Coordinates from ORCA-job /home/esp/scriptDevelopment/drFrankenstein/outputs/torsion_3-4-5-6/conformer_6_backwards/orca E -18.825604715660
  C           0.72198743636938      0.44072967687656     -1.95989063664532
  C           1.27533060912763      0.85957337878175      1.82239848500809
  C           0.85240178863897     -0.36148734108182      1.76562356842654
  C           0.42219858968618     -1.58022024418260      1.70090041612028
  C           1.66533552791500     -0.47653353535958     -1.93117260952765
  C          -2.62025818179386      0.52380827194329      0.30916474633022
  H           0.43907684743754      0.94204376138876     -2.87148772016527
  H          -2.81018156955711      0.12885433760671     -0.68051142868624
  H           2.32670778805497      1.09647423005557      1.83683481037280
  H           0.19299144845845      0.74029234263035     -1.07025864596975
  H           0.59332148324698      1.69375146171905      1.85995091581538
  H           0.23873897907479     -2.06732646599297      0.75633543683873
  H           0.22546367047401     -2.16129383146898      2.58747368042085
  H           2.19932616225917     -0.77729124492250     -2.81828266761244
  H           1.95142526501447     -0.96970117220382     -1.01674214357374
  H          -1.79292696903364     -0.01070237335771      0.75846616130537
  H          -2.37574631061690      1.57564527582353      0.23540103641298
  H          -3.50419256475595      0.40338347174437      0.92179659512927
