18
Coordinates from ORCA-job /home/esp/scriptDevelopment/drFrankenstein/outputs/torsion_3-4-5-6/conformer_6_backwards/orca E -18.825515650230
  C           1.24716174611663      0.41313902356052     -1.72649258368725
  C           1.07851331454130      1.11872528631812      2.15540346662198
  C           0.85704182154456     -0.14983259110774      2.02878208853988
  C           0.63298031966699     -1.41642101841192      1.89436501218316
  C           0.70708537772668     -0.61759524161151     -2.34228412656352
  C          -2.37365892946662      0.33097609520551      0.04936012624850
  H           1.88637120231754      1.10936359516628     -2.24345656489715
  H          -1.78648320600576      0.26425479161308     -0.85732184681054
  H           2.06393149348304      1.53623078032719      2.02229120327572
  H           1.08107027362745      0.61129111255077     -0.68002058618550
  H           0.29161109142054      1.81321268148662      2.40279576205161
  H           0.36490198779586     -1.84690145040447      0.94310213615243
  H           0.71005977452223     -2.09762721503433      2.72630839351778
  H           0.87942472408928     -0.81180539704344     -3.38855650903732
  H           0.06566401720311     -1.31787195053879     -1.83258462813362
  H          -1.72975885341923      0.16850670206394      0.90405846181048
  H          -2.82280851361364      1.31320371810434      0.11579065110476
  H          -3.15210764154989     -0.42084892224415      0.03445954380863
