18
Coordinates from ORCA-job /home/esp/scriptDevelopment/drFrankenstein/outputs/torsion_3-4-5-6/conformer_6_backwards/orca E -18.825805770810
  C           0.54848116375701     -0.06387809458572     -2.08026443303080
  C           1.13751141532782      0.78518609560287      2.05011403325458
  C           0.82588931703875     -0.42479745970285      1.71497356899452
  C           0.50842311204083     -1.62931455472811      1.36677417172780
  C           1.83101629044682     -0.27577524511888     -1.87141571407763
  C          -2.57781863513775      0.79407138308393      0.41899649643494
  H           0.05388736062924     -0.38000239583552     -2.98421124751087
  H          -2.91328037083289      0.45138501281832     -0.55143324792898
  H           2.15085186468250      1.06663809123900      2.28738843556627
  H          -0.06717418957877      0.43500272351336     -1.35038158986421
  H           0.39575765997102      1.56528618516976      2.11065843898953
  H           0.52117916799507     -1.93839337444030      0.33353784537777
  H           0.21930631309887     -2.37396791540102      2.09085907638412
  H           2.45422231799764     -0.77752207850340     -2.59404590128799
  H           2.31485064306538      0.03853188304253     -0.96129058292447
  H          -1.76256492064965      0.17001361446870      0.76247914254248
  H          -2.24180677117135      1.82016944816129      0.34021495930021
  H          -3.39773173868045      0.73736668121601      1.12304654805287
