18
Coordinates from ORCA-job /home/esp/scriptDevelopment/drFrankenstein/outputs/torsion_3-4-5-6/conformer_6_backwards/orca E -18.825610367910
  C           0.57185850562016     -0.20019453152037     -2.01387801586479
  C           1.07608180123012      0.74441351167697      2.03610450364325
  C           0.78135054052764     -0.46157097316156      1.67238893410099
  C           0.48477727699389     -1.66592628774978      1.30425988693750
  C           1.88354635795668     -0.16869139764763     -1.90600617813766
  C          -2.56701329238722      0.86540833829996      0.45328523261017
  H           0.07628352966371     -0.77523488661765     -2.77980898979922
  H          -2.93931957478785      0.54714102938094     -0.51195300761314
  H           2.08357685324524      1.02425660389280      2.29931455423652
  H          -0.06813096394491      0.34685047433331     -1.34181529963862
  H           0.33049862292472      1.52061479979590      2.09725072509172
  H           0.52474344961127     -1.96424310257480      0.26894575565008
  H           0.19223501299219     -2.41941989959129      2.01782701152936
  H           2.52725991540083     -0.70995336023807     -2.58054124982256
  H           2.37733204158006      0.40057658958726     -1.13577539379389
  H          -1.77130619220200      0.20399112797910      0.77242015033081
  H          -2.19049909758490      1.87742694604250      0.37815995453897
  H          -3.37227478683954      0.83455501811238      1.17582142600060
