18
Coordinates from ORCA-job /home/esp/scriptDevelopment/drFrankenstein/outputs/torsion_3-4-5-6/conformer_6_backwards/orca E -18.825761747780
  C           1.26922176160069      0.20120197314970     -1.71389667208617
  C           0.89951257312863      1.17176520636502      2.31408061876140
  C           0.89124228249313     -0.09366287681195      2.04414501469369
  C           0.88176129586287     -1.35699361739013      1.76592550875794
  C           0.59144922846327     -0.73024257601104     -2.35168550744398
  C          -2.36367171733220      0.44613474415457      0.02542315265996
  H           2.05368353133269      0.76275396833297     -2.19458581080571
  H          -1.80564604971139      0.67070222272842     -0.87426978970257
  H           1.81208203206993      1.74617719580415      2.30696778312417
  H           1.07460841006753      0.44587655023469     -0.68218300191444
  H          -0.00282255025874      1.70830207164270      2.55982295033654
  H           0.75103091941747     -1.71370459961696      0.75708799528649
  H           1.00719079846493     -2.10612546274246      2.53096186186681
  H           0.78597555168885     -0.97561876146179     -3.38320823494179
  H          -0.19498745551992     -1.29267435690801     -1.87442620715411
  H          -1.68075676691848      0.12572914990783      0.80141428913396
  H          -2.89189530456291      1.33256602948156      0.35194116294636
  H          -3.07697854028627     -0.34218686085925     -0.17751511351852
