18
Coordinates from ORCA-job /home/esp/scriptDevelopment/drFrankenstein/outputs/torsion_3-4-5-6/conformer_6_backwards/orca E -18.825839874830
  C           0.62631083844849      0.22126357736389     -2.01928898413920
  C           1.21928491130247      0.81550172049854      1.85599891005854
  C           0.82816043674748     -0.40793711673514      1.70363768628131
  C           0.43328626400610     -1.62946021464387      1.54336573237045
  C           1.79594999644263     -0.35750927704226     -1.84626919918534
  C          -2.60968202429547      0.65047734257737      0.38013080300365
  H           0.19690748670031      0.36269624066071     -2.99796124350371
  H          -2.89738714957306      0.25110378161065     -0.58381864394561
  H           2.26250557648523      1.06843733539408      1.95578782225253
  H           0.04348796668144      0.58052764844047     -1.18771341784234
  H           0.52054411985829      1.63571497082675      1.89184470555878
  H           0.32752853427351     -2.06624934771948      0.56323823571004
  H           0.19634522075976     -2.26241223078482      2.38340388086737
  H           2.38325119003127     -0.72167604938808     -2.67378635103470
  H           2.21979886514562     -0.49415045731795     -0.86459178746137
  H          -1.78231288868279      0.07635907241284      0.77753029261949
  H          -2.31281286292520      1.68488141557260      0.26511820793024
  H          -3.45016648140601      0.59243158827365      1.05937335045999
