18
Coordinates from ORCA-job /home/esp/scriptDevelopment/drFrankenstein/outputs/torsion_3-4-5-6/conformer_6_backwards/orca E -18.825210949630
  C           1.13475220817688     -0.68812203553624     -2.30437532149855
  C           1.46858942395832      1.38562786935577      1.64100855929911
  C           0.93024412793682      0.30843008779504      2.11512111769932
  C           0.39526011312823     -0.77097731366042      2.58617812059028
  C           0.62259737189050      0.45395872981720     -1.89809517485157
  C          -2.35331503907958     -0.28956945020156      0.00062005959065
  H           0.94161109338837     -1.08418030529170     -3.28815929085411
  H          -3.07317371067174      0.30256271666949     -0.54909772267421
  H           2.51795841950443      1.43592724322213      1.40108142923699
  H           1.76007034599565     -1.28733334519273     -1.66277811817892
  H           0.88676206504612      2.27740668638762      1.46548921333971
  H          -0.02516761914257     -1.52529297322541      1.94244746550979
  H           0.33596081845791     -0.95417672815586      3.64694402154520
  H          -0.01799050399820      1.04429087298385     -2.53345372310349
  H           0.81150356892437      0.84587007712248     -0.91168662482364
  H          -1.70451154352118      0.36532882598556      0.56885496053138
  H          -2.87582677026436     -0.95261415173340      0.67740350871009
  H          -1.75432436972982     -0.86713680634182     -0.69150248006806
