18
Coordinates from ORCA-job /home/esp/scriptDevelopment/drFrankenstein/outputs/torsion_3-4-5-6/conformer_6_backwards/orca E -18.825806398020
  C           0.55736494960545      0.09122555588948     -2.10591130045842
  C           1.17595679416656      0.82341152983292      2.04424515405619
  C           0.85049105593985     -0.39485831082594      1.75472750530097
  C           0.51917584560664     -1.60964200839641      1.45515536456869
  C           1.76557676379271     -0.37781283365810     -1.87569893727648
  C          -2.57785642377611      0.72151971613908      0.37954834199344
  H           0.10455086135195      0.05230353077843     -3.08384718426427
  H          -2.87268997498338      0.35830956433054     -0.59658132473650
  H           2.19628770410529      1.10563115593242      2.24847883993152
  H          -0.04170829190855      0.52840113951193     -1.32425532414775
  H           0.44033281659955      1.60978131090022      2.09688337871227
  H           0.50382003220747     -1.95534385312279      0.43396172007007
  H           0.24579111101958     -2.32679511637168      2.21225268139604
  H           2.36650497037010     -0.82218252998701     -2.65262597124738
  H           2.21004363508955     -0.33354606439365     -0.89493086856753
  H          -1.74597923356608      0.13507001648066      0.74915033899451
  H          -2.28351840742505      1.76041657461571      0.30336130564450
  H          -3.41314420819544      0.63411062234418      1.06208628003021
