18
Coordinates from ORCA-job /home/esp/scriptDevelopment/drFrankenstein/outputs/torsion_3-4-5-6/conformer_6_backwards/orca E -18.825408642560
  C           0.91824202930428      0.70156343975139     -1.74219039977465
  C           1.41355872139771      0.93600145255438      2.00575889447322
  C           0.93377282458875     -0.26526626686512      2.02538179119878
  C           0.45153118446143     -1.46519865757869      2.03832458730951
  C           0.97575472107639     -0.54884054970690     -2.15050610539809
  C          -2.44350104898804      0.27803912738278     -0.05407460420702
  H           0.98088207712467      1.52828042256926     -2.43198107162282
  H          -1.84013501465483     -0.13044778850249     -0.85442438052238
  H           2.40744932559732      1.14224092797557      1.64187636843766
  H           0.80605309008116      0.95823344688208     -0.70171672627328
  H           0.84243246674397      1.78146027548699      2.35461616873073
  H          -0.09536279644250     -1.86595187621181      1.20007279049911
  H           0.57382142071750     -2.11667926162964      2.88859646269684
  H           1.08691374962000     -0.80852269793056     -3.19079639430487
  H           0.92055606737373     -1.37430784780285     -1.45966978500578
  H          -1.93766095460161      0.12930555067795      0.89110583598027
  H          -2.58776850722009      1.33744662077174     -0.22113876320962
  H          -3.40553935617980     -0.21735631782409     -0.03323466900758
