18
Coordinates from ORCA-job /home/esp/scriptDevelopment/drFrankenstein/outputs/torsion_3-4-5-6/conformer_6_backwards/orca E -18.825440853260
  C           1.50602145663007     -0.19861784483139     -1.71887626246078
  C           0.85311966446333      1.29394195857411      2.02439007556811
  C           0.87215400632623      0.00075601459277      2.05062607397861
  C           0.88816154701880     -1.29259567453036      2.07244178348326
  C           0.53964165264345     -0.20497793901047     -2.61303335314210
  C          -2.44504837349833      0.24261570304683      0.17234085617344
  H           2.53730178825564     -0.34879504563807     -1.99484049189126
  H          -2.05804619590903      1.00088566340598     -0.49628237656123
  H           1.76210947160229      1.87376625339310      2.02492717647316
  H           1.31164913545869     -0.04746051968605     -0.66984884746449
  H          -0.07184503795326      1.84729320497907      2.00230434479828
  H           0.90676115449432     -1.87819468322616      1.16681977865881
  H           0.88266541582562     -1.84230515979584      2.99997279355555
  H           0.73257395266503     -0.35433958816371     -3.66317632057671
  H          -0.49243250942523     -0.06332969103164     -2.33771691760279
  H          -1.62929931224274     -0.19024747077374      0.73653460683871
  H          -3.15697643474009      0.69222918987678      0.85240916428967
  H          -2.93751138161468     -0.53062437118124     -0.40299208411825
