18
Coordinates from ORCA-job /home/esp/scriptDevelopment/drFrankenstein/outputs/torsion_3-4-5-6/conformer_6_backwards/orca E -18.825388973360
  C           1.33793526671337     -0.39781435129797     -1.68514490229276
  C           0.95713051247184      1.30987266106098      1.83362366859824
  C           0.92151214663803      0.03936223443030      2.07549253138620
  C           0.88170393903829     -1.23251837485356      2.30997897507851
  C           0.53213873752012      0.17151946567566     -2.55666767474486
  C          -2.40822523665136      0.08152265138453      0.08554326651421
  H           2.15361902203368     -1.03290497098094     -1.99166307879082
  H          -2.32237940985106      1.10801353350149     -0.24690664003404
  H           1.88890245051976      1.83740413390600      1.70742319427129
  H           1.22052565398087     -0.25545052361530     -0.62339269702716
  H           0.05655561037887      1.89640988931977      1.74879370721605
  H           0.83952706962087     -1.95850857730694      1.51341860196527
  H           0.88883576632104     -1.62335330574229      3.31464040060916
  H           0.64855657513065      0.03381359987948     -3.61954419066297
  H          -0.28452021085712      0.80244988304612     -2.24751335088155
  H          -1.49776691884486     -0.21161831193309      0.59162115258622
  H          -3.24504853975039     -0.00648397477314      0.76618029496191
  H          -2.56800243441251     -0.56171566170110     -0.76988325875294
