18
Coordinates from ORCA-job /home/esp/scriptDevelopment/drFrankenstein/outputs/torsion_3-4-5-6/conformer_6_backwards/orca E -18.825867480210
  C           1.34968041480250      0.20295427706380     -1.68125733527203
  C           0.95306296427462      1.18791017882838      2.13160379839817
  C           0.89650197273624     -0.09913959248998      2.00930841418674
  C           0.83651316002221     -1.38437988615362      1.87657751086280
  C           0.56254419153245     -0.59445834331435     -2.37261233802820
  C          -2.39901847403815      0.37226397388744      0.06815172036019
  H           2.25631046922626      0.61103739899585     -2.09911361948526
  H          -1.89479144335190      0.88166671093480     -0.74292174922232
  H           1.89410275968333      1.71348982979346      2.16099853445273
  H           1.12790449597653      0.48215440089160     -0.66424904682956
  H           0.06258578467109      1.79110374664202      2.21051695854653
  H           0.78600711356551     -1.85342186517498      0.90659686165194
  H           0.83359099858772     -2.04273823815605      2.73029597259369
  H           0.78170356353502     -0.87734008079778     -3.38954266266743
  H          -0.34230599836512     -1.00202881935687     -1.95270335370762
  H          -1.66434256930466     -0.03512025681060      0.75094654454419
  H          -3.03163901353496      1.07449070453931      0.59561386908407
  H          -3.00741039001856     -0.42844413932244     -0.33221007946863
