18
Coordinates from ORCA-job /home/esp/scriptDevelopment/drFrankenstein/outputs/torsion_3-4-5-6/conformer_6_backwards/orca E -18.825309080060
  C           1.50857441935356     -0.27462331578207     -1.74352609867185
  C           0.84189554708011      1.30174881506442      1.97824015679206
  C           0.86226935180118      0.01112334404385      2.06122806732444
  C           0.87917722066917     -1.27961346908893      2.14213158904333
  C           0.55074818906597     -0.09620850928229     -2.62885747850665
  C          -2.43896922891468      0.20766181639316      0.17985621257626
  H           2.51837182007779     -0.51147173619398     -2.03790731457530
  H          -2.07855157573079      0.99275754575576     -0.47256199577123
  H           1.74891477940571      1.88360529382193      1.94778892664373
  H           1.32826099023851     -0.19460254747628     -0.68425573669532
  H          -0.08482588844552      1.85152264441081      1.93715568145071
  H           0.89466045509099     -1.90663066053320      1.26443089506378
  H           0.87903520457819     -1.78606298526387      3.09405469485909
  H           0.73057614533473     -0.17207434269034     -3.68918478831138
  H          -0.46098254113729      0.13132648311581     -2.33649230675148
  H          -1.60935012399248     -0.20474438903767      0.73916349942456
  H          -3.16822381880032      0.61857520386963      0.86613906875520
  H          -2.90058094567472     -0.57228919112674     -0.41140307264996
