18
Coordinates from ORCA-job /home/esp/scriptDevelopment/drFrankenstein/outputs/torsion_3-4-5-6/conformer_6_backwards/orca E -18.825405767530
  C           1.43688196491312     -0.23932856967254     -1.67555588637518
  C           0.99253399616553      1.29091657470911      1.86977062223684
  C           0.90608721038146      0.01256723032532      2.04832244144037
  C           0.81728346579561     -1.26466324487523      2.23319423667975
  C           0.50612675171813      0.01968137311455     -2.56989024852291
  C          -2.43084678924397      0.11533387195321      0.11574709510347
  H           2.40201709862125     -0.63010813389353     -1.95562327023148
  H          -2.23381810232249      1.07135916828330     -0.35190575037449
  H           1.94649533445579      1.78313543851820      1.76672491332998
  H           1.27573911603918     -0.07346660188425     -0.62272531911824
  H           0.11664340771490      1.91618212947498      1.80717447847651
  H           0.75009261041732     -1.95873503094299      1.41076960549070
  H           0.80984225418427     -1.69099486278800      3.22349373651202
  H           0.65951048307508     -0.14501076238549     -3.62412799995556
  H          -0.46045797403372      0.40145098173525     -2.28629461682651
  H          -1.53511165607925     -0.24303049958352      0.60580393144959
  H          -3.21801735539446      0.23162048015610      0.84952363785474
  H          -2.74000181640766     -0.59690954224450     -0.63840160716965
