18
Coordinates from ORCA-job /home/esp/scriptDevelopment/drFrankenstein/outputs/torsion_3-4-5-6/conformer_6_backwards/orca E -18.825723893080
  C           0.55920735061131     -0.13365104156802     -2.05758787557823
  C           1.10784054066937      0.76439820311978      2.04943925332845
  C           0.80672778530277     -0.44357353230990      1.69790482729232
  C           0.50247954346537     -1.64812935067707      1.33600564287761
  C           1.86179697715427     -0.22410548178407     -1.89003388278548
  C          -2.57862342200705      0.83304756157011      0.43817816493197
  H           0.05797441285255     -0.58697774539431     -2.89830099484720
  H          -2.93326104103142      0.50367898518802     -0.52999473887927
  H           2.11711907709654      1.04636719592741      2.30318967024242
  H          -0.06879558265620      0.38992969662997     -1.35621059673041
  H           0.36334241131889      1.54192114972201      2.10853834756903
  H           0.52848393671548     -1.94801436770225      0.30065912164645
  H           0.21122709105749     -2.39952376869030      2.05215954886526
  H           2.49458692145686     -0.74933594913667     -2.58708637693045
  H           2.35594460401371      0.22346420849981     -1.04337244688436
  H          -1.77332140053991      0.18873824032140      0.76829019237071
  H          -2.22043851080393      1.85168945733394      0.36264535779937
  H          -3.39129069467602      0.79007653895013      1.15157678571194
