47
Coordinates from ORCA-job /home/esp/scriptDevelopment/drFrankenstein/11_PCY_CHARMM/04_torsion_scanning/torsion_NH1-CT1-CG321-CG2R61/scans_PCY_conformer_46/PCY_conformer_46_forwards/orca_scan E -79.893538612460
  H          -2.26636154695845     -1.25780193278773      4.44897361774968
  H          -0.65360756523638     -2.93492059238629      3.76348158651469
  H          -1.83562448625828      2.34854525169880      2.81146340235772
  H           1.28686347741021      3.54847013744353     -0.77971961854228
  H          -2.97966715186103     -0.15614838184260      3.23597412995730
  H          -1.12405725395450      3.52128872669897      0.76484718973054
  H           0.80875055686545     -0.86517613038655      1.89049253281195
  H           1.30561684644582      2.02613180020402     -1.68081337462918
  H          -0.96043546779671     -4.61802579173136     -0.15301612533555
  H           1.49453535890298      0.28178443744769     -0.17532460266089
  H          -2.49322361091625     -2.77977029469237     -0.78903929609589
  H          -2.30349862309259      3.46274890974299     -2.45422160859939
  H          -0.05127351559410     -4.69373775860676      2.15263360445835
  N          -1.71813587931076      2.78649662014280     -1.94754366941805
  C          -0.42706333149338      3.22332875871598     -1.96100204343689
  C          -0.28176997314862      4.40268914042688     -2.80232475812183
  C           0.66992480303835      2.70251902055808     -1.09748436206322
  O          -1.28879077409259      4.89035137650251     -3.36018429250324
  C           0.22125805335311      1.97427867922231      0.14219304227230
  C          -0.70086122049029      2.55648849398007      1.00421134920647
  C          -1.10044615989789      1.90777540993643      2.15606935966348
  C          -0.56068307337919      0.66827030911889      2.46936876296762
  C           0.38695913608602      0.09414761428403      1.63296372163230
  C           0.77295287572976      0.74673869697377      0.47864974120920
  O          -0.94672846472963      0.00086178463362      3.62648528056169
  C          -2.12282231452398     -0.79455756793035      3.47038257491034
  C          -1.89762932665939     -1.85700176825739      2.42093580446146
  C          -1.05560580717592     -2.91080823383836      2.76229339116342
  C          -0.71526551203087     -3.89799100121994      1.85503913534362
  C          -1.22499218388676     -3.85936300977939      0.56503266481790
  C          -2.07944478870937     -2.83998176788274      0.20529375048886
  C          -2.41509484590899     -1.83686525099385      1.11795355555293
  N          -3.33283175738712     -0.85508386699814      0.64746889811637
  O          -3.38656822268131      0.24753194583611      1.17350319020046
  O          -4.07186688644738     -1.17187324477096     -0.27753560835250
  C           1.20790558376282      6.07173498019989     -3.80235222851952
  N           0.95074883896217      4.92772123856235     -2.96183719154926
  H           1.74931193602789      4.46062598338129     -2.56499527342835
  H           1.83504466024625      5.79274482674691     -4.64970943118193
  H           0.25127143318376      6.43961189821601     -4.16900852730116
  H           1.70337515681839      6.85468044426739     -3.22871138529568
  C          -2.29696704964757      1.58340168427318     -1.64045156883237
  O          -1.66797955753292      0.60258129009208     -1.26698469701596
  C          -3.78844841442478      1.61214716405579     -1.82847270151155
  H          -4.23007332418888      2.24693002391937     -1.06264759094007
  H          -4.04696743348597      2.00635175323542     -2.80707964017440
  H          -4.19072319393106      0.60815819358760     -1.71924069063950
