47
Coordinates from ORCA-job /home/esp/scriptDevelopment/drFrankenstein/11_PCY_CHARMM/04_torsion_scanning/torsion_NH1-CT1-CG321-CG2R61/scans_PCY_conformer_46/PCY_conformer_46_forwards/orca_scan E -79.900122672250
  H          -1.10148547667330     -2.24024466734274      3.57403933809512
  H           0.74310883902706     -2.79129778472630      2.09783186820870
  H          -2.51720312375475      1.28795717437272      3.02874990975773
  H          -1.33966103860814      4.68331213708360     -0.06659484596351
  H          -2.36173497966611     -1.09294428217765      3.06097325637801
  H          -2.56425440050728      3.14474637921902      1.42751116856798
  H           1.59154802972397      0.59913298534096      2.11895224232884
  H           0.31269891282455      4.30296856437744     -0.60402754952343
  H           0.49955528050245     -1.97884867400473     -2.09162627117707
  H           1.55686913320624      2.46778233405196      0.52271445461161
  H          -1.59641785836234     -0.73466723297570     -1.70867314035465
  H          -2.78694063539866      2.21767300988055     -2.30716985644238
  H           1.64823430293437     -3.05492409576526     -0.17333072089017
  N          -2.58207006710246      2.97328016461131     -1.64416744572474
  C          -1.24637827101038      3.08459294086542     -1.45285497446091
  C          -0.50785025848878      2.13423842942019     -2.28124831780554
  C          -0.65470240288183      3.88112557760585     -0.33833960339933
  O          -1.13216927890192      1.34988245676727     -3.02217942653958
  C          -0.53013705040378      2.89383941882055      0.80436035000707
  C          -1.65360633038272      2.58126506040199      1.56184349748509
  C          -1.62845845498697      1.53993309184590      2.46837812381146
  C          -0.46906511825695      0.78856021536577      2.62587266805534
  C           0.68638303599485      1.15989828625589      1.94936155521426
  C           0.65181578938323      2.20431312694081      1.04612974407104
  O          -0.43848384135974     -0.35061136596460      3.41138594200387
  C          -1.31512456354482     -1.38111992094921      2.93726096283598
  C          -0.96295795710016     -1.67641200685730      1.49839529733442
  C           0.21797104665756     -2.36774770196365      1.25603467222142
  C           0.73645067916235     -2.50030021646490     -0.02073606862291
  C           0.09472055218803     -1.90283498830463     -1.09586798990671
  C          -1.07797312045907     -1.20901703093114     -0.88880752914534
  C          -1.62032936653511     -1.10702720496923      0.39523176769203
  N          -2.85656759327083     -0.42046044588965      0.50141140969696
  O          -3.64218146907502     -0.71351647236112      1.40517064472488
  O          -3.12168452448281      0.44039931169440     -0.33742136798959
  C           1.66419720930318      1.21196485892015     -2.93712028353878
  N           0.83577549007550      2.15158880721492     -2.22362747825396
  H           1.29720799854248      2.81291178289625     -1.62167393742694
  H           2.17670885397071      0.55142279275642     -2.23629365904119
  H           1.01891141653124      0.62213758902171     -3.58509032863800
  H           2.39953400220581      1.74233030831475     -3.54064679045990
  C          -3.65252800819014      3.61887240396346     -1.08378531061388
  O          -3.54359318019903      4.54774128598896     -0.29302295239608
  C          -4.96384294869593      3.05816324787265     -1.54763469504769
  H          -5.77993831253876      3.60198098410319     -1.08223753017943
  H          -5.04450062188758      3.12750803385929     -2.62907426398092
  H          -5.01084031950806      2.00848133181443     -1.26234653557916
