47
Coordinates from ORCA-job /home/esp/scriptDevelopment/drFrankenstein/11_PCY_CHARMM/04_torsion_scanning/torsion_NH1-CT1-CG321-CG2R61/scans_PCY_conformer_46/PCY_conformer_46_forwards/orca_scan E -79.896951397090
  H          -2.04969201093415     -0.73580417228726      4.50615524839819
  H          -0.69748758186229     -2.67976264757771      4.02308530734002
  H          -1.21594123069508      2.64001637133749      2.59110075426748
  H           1.57071341592592      2.75806066240495     -1.70213374216100
  H          -2.67742035355196      0.27843935111070      3.17449282163437
  H          -0.66480061752536      3.51377110828768      0.35383415126219
  H           0.78926508394205     -1.00624119096318      1.66481634636229
  H           0.71168757948333      1.34395715111464     -2.32028067442029
  H          -1.38032178193284     -4.82284642661160      0.38912627148115
  H           1.31484844976239     -0.15122537060998     -0.58300894826170
  H          -2.67603642584613     -2.89487419293492     -0.46836712497309
  H          -2.38234321966416      3.32477338923030     -2.65591721975552
  H          -0.39572041699061     -4.70601296552648      2.66206313079429
  N          -1.75368316700159      2.58609987545518     -2.32179788561352
  C          -0.48678266705599      3.07150131186642     -2.19794685185331
  C          -0.41373588005400      4.47629689883541     -2.56147519460531
  C           0.61953490476043      2.22655793319151     -1.67962319645338
  O          -1.44098509377180      5.05431782030161     -2.97967872581368
  C           0.34638273332382      1.73235985210821     -0.27519099167420
  C          -0.34019016025314      2.52273284074803      0.63698884095318
  C          -0.65086930194214      2.04097777967296      1.89398436843381
  C          -0.26430301900913      0.75840692801606      2.25366768346337
  C           0.47536214101014     -0.01667279912472      1.36992291121334
  C           0.77411595004001      0.47072009844887      0.11316561178156
  O          -0.62722412401168      0.23977796632933      3.49119024839030
  C          -1.89243731991697     -0.42389764375321      3.47148158459284
  C          -1.84027291008706     -1.63445655898502      2.56952423797869
  C          -1.13173076488829     -2.73706369993460      3.03693999615082
  C          -0.96039575843282     -3.87544701607337      2.26988435069915
  C          -1.51236713625700     -3.94409647273742      0.99857471470967
  C          -2.23630382130951     -2.87530339997978      0.51652656311802
  C          -2.39886968397583     -1.71999353830425      1.28569925929018
  N          -3.18689061904192     -0.69148417384128      0.69425042762560
  O          -3.05080409414822      0.47322305818947      1.04667984164595
  O          -4.00162001705148     -1.02356171205534     -0.15872298181109
  C           0.93316064978370      6.51248407179061     -2.76878441480095
  N           0.76943509589666      5.11531697366239     -2.45114629368638
  H           1.56037360450223      4.64189469116176     -2.04629285330881
  H           1.72616875882903      6.63808558257310     -3.50547469488187
  H          -0.00724790789470      6.87450990867931     -3.18063263738400
  H           1.17809614968579      7.08433762279563     -1.87293300310879
  C          -2.28022978052778      1.33963456425425     -2.11583533992632
  O          -1.61559739188659      0.37584127015384     -1.75813374690150
  C          -3.75598546794134      1.28809172728258     -2.39741425672275
  H          -4.27009947421372      2.06059009297313     -1.83147639297105
  H          -3.93643033807070      1.44849700943809     -3.45757095529716
  H          -4.14531497919952      0.31550006988663     -2.10730654520086
