47
Coordinates from ORCA-job /home/esp/scriptDevelopment/drFrankenstein/11_PCY_CHARMM/04_torsion_scanning/torsion_NH1-CT1-CG321-CG2R61/scans_PCY_conformer_46/PCY_conformer_46_forwards/orca_scan E -79.892680031860
  H          -1.54745973228833     -1.70611859501598      4.28893751686222
  H          -0.04754411886211     -2.88426886960665      2.37646081215294
  H          -1.19605474042133      1.92205033755856      3.71096475996493
  H          -0.69450973753796      4.54710274103308     -0.06095845681514
  H          -2.28631176910513     -0.24775042999649      3.59497402806405
  H          -1.09939214965772      3.76974216910277      2.09576664892785
  H           0.94308973329695     -0.57731902407486      0.99740411491314
  H           0.98998214009408      4.16386860558769     -0.44976068421441
  H          -2.32249456690489     -3.88105719246055     -1.10555888597347
  H           1.04764104438484      1.27792263135816     -0.62640336529199
  H          -4.04681620809256     -2.25089520926655     -0.40565622449755
  H          -1.28003503916812      2.04552575406895     -3.00491396168293
  H          -0.31536058286652     -4.20782281907774      0.31387004522098
  N          -1.30824686399849      2.29779218186055     -2.00972618585962
  C          -0.43083121446239      3.31280209218926     -1.77106986566983
  C           0.15920840902705      3.80603115428870     -3.00705232997893
  C          -0.02189750102425      3.75451609291137     -0.40806703112438
  O          -0.13403808746573      3.25567231106289     -4.08981311845986
  C          -0.04186534525352      2.64356610315577      0.61138374515170
  C          -0.64261344335225      2.82357883014289      1.84981070872272
  C          -0.70428337597029      1.78668539437268      2.75913981391502
  C          -0.15150733893144      0.55292967675837      2.44082285120989
  C           0.49901124513030      0.37838493950420      1.22729140166392
  C           0.55527705721466      1.42262193137924      0.32402006648649
  O          -0.24249817033150     -0.51152941470461      3.32838592940943
  C          -1.55948297374798     -1.04501033908102      3.41836668540778
  C          -1.88354400256829     -1.84203771725981      2.17764792075708
  C          -0.92604495457919     -2.76300660269980      1.76122831511801
  C          -1.07307922190398     -3.49556708619127      0.59860386777540
  C          -2.19616631909255     -3.31419876105800     -0.19790426677754
  C          -3.15683155632765     -2.40497400279012      0.18446943925949
  C          -3.01276657068592     -1.66896408838313      1.36567431437952
  N          -4.06337552340553     -0.76457017745038      1.67328348730108
  O          -4.23609486911087     -0.40405586409161      2.83417542157714
  O          -4.78058543225436     -0.38261914864279      0.75423502246653
  C           1.60799491088417      5.44465785982153     -4.11131633138977
  N           1.00468609978726      4.85506298025686     -2.94103186635111
  H           1.14724252509861      5.32913495027783     -2.06442682875642
  H           2.69233409065393      5.46182798400085     -4.00495842703870
  H           1.33578396446754      4.83586125513423     -4.97158958722030
  H           1.24403252673127      6.46179889019771     -4.26052958886009
  C          -2.30010529929112      1.74284762662608     -1.24203941410927
  O          -2.58105511276285      2.13887617873367     -0.12024477269597
  C          -3.00103732694544      0.60651695737833     -1.93125592387542
  H          -3.37568566983904      0.92212067063748     -2.90090468305081
  H          -2.30654583938215     -0.21805081190793     -2.07500231668729
  H          -3.83111308917911      0.27834785435952     -1.31072280032652
