47
Coordinates from ORCA-job /home/esp/scriptDevelopment/drFrankenstein/11_PCY_CHARMM/04_torsion_scanning/torsion_NH1-CT1-CG321-CG2R61/scans_PCY_conformer_46/PCY_conformer_46_forwards/orca_scan E -79.891836819090
  H          -1.70707870280916     -1.62007907439404      4.30807293928418
  H          -0.13047768787350     -2.87350290012168      2.47207660626042
  H          -1.13535149111868      1.98260788594138      3.71203744546559
  H          -0.38694432108465      4.56038824502572     -0.05633092138334
  H          -2.36341324387794     -0.16489706111264      3.52922470233161
  H          -0.93217414452493      3.80027185633130      2.06963705995270
  H           0.87355872434977     -0.66875879414664      1.04444948922127
  H           1.20480676848546      3.95973532427831     -0.54613963446047
  H          -2.31863956209588     -3.95806503320749     -1.03958661171368
  H           1.08359373717409      1.15302289871918     -0.60622339998225
  H          -4.04772206382062     -2.29489439375896     -0.43598059488944
  H          -1.26518695946549      2.07650200818220     -3.01487811582416
  H          -0.35452819467027     -4.25842423380844      0.44436387408013
  N          -1.24389413882648      2.26919513827579     -2.00527187581407
  C          -0.38173876337947      3.29767554542788     -1.76809648837350
  C           0.10360788495138      3.87574058518391     -3.01387191574194
  C           0.15300651031137      3.68284281544661     -0.42998782866508
  O          -0.25725195423106      3.38166277328455     -4.10338884711517
  C           0.06528657728357      2.59425244286512      0.60635031513919
  C          -0.52735752482199      2.82668228118100      1.83957177514083
  C          -0.64855000960135      1.80844191507919      2.76403131491459
  C          -0.16281126494069      0.54222727064834      2.46622765840286
  C           0.48161269993981      0.31308029559975      1.25859859171007
  C           0.59739604131786      1.33860572306039      0.34023212950430
  O          -0.32037058885226     -0.50000583950938      3.37203332072453
  C          -1.65568818539311     -0.99075861894946      3.41534269648883
  C          -1.94989617435989     -1.82185888641875      2.19005368700535
  C          -0.99042812986864     -2.76391009580544      1.82897690811632
  C          -1.11285242569018     -3.53100986537125      0.68600417329455
  C          -2.21203520603030     -3.36479870732802     -0.14639074170409
  C          -3.17490182913096     -2.43710284537836      0.18213222601648
  C          -3.05624622694724     -1.66645328919743      1.34388303279505
  N          -4.10797871121593     -0.74726684802499      1.59779821734857
  O          -4.30577845326514     -0.34991117638577      2.74214442885144
  O          -4.80157756500409     -0.39135614809305      0.65080232293976
  C           1.43661209596040      5.60864494360022     -4.11956339272053
  N           0.93027580692037      4.93952533261817     -2.94589319816281
  H           1.12557634048116      5.36562809820433     -2.05490980481611
  H           2.52532603139795      5.64352559736756     -4.08993831251259
  H           1.11395238400643      5.04424999745228     -4.99256132870590
  H           1.04481705474615      6.62437736709668     -4.18303791248934
  C          -2.20192621807766      1.65749685246288     -1.23682517623487
  O          -2.46146371392221      1.98937516266855     -0.08935573666089
  C          -2.89782772509952      0.54077364727598     -1.96316104572571
  H          -3.24803097302982      0.87451838803962     -2.93561232830852
  H          -2.20672548949504     -0.28735868965237     -2.10394021988649
  H          -3.74357101480152      0.20739210934722     -1.36708948309769
