47
Coordinates from ORCA-job /home/esp/scriptDevelopment/drFrankenstein/11_PCY_CHARMM/04_torsion_scanning/torsion_NH1-CT1-CG321-CG2R61/scans_PCY_conformer_46/PCY_conformer_46_forwards/orca_scan E -79.899777033090
  H          -0.96402631176881     -2.26006277586854      3.57447116249767
  H           0.87508427872124     -2.83576882454343      2.12268080602185
  H          -2.50003989403271      1.17899377613031      3.00318190690727
  H          -1.41973869550390      4.67257914205401     -0.02934264289648
  H          -2.24663184341274     -1.15023026458560      3.03590573274687
  H          -2.61912231321569      3.02787476711193      1.39597792640258
  H           1.66062251154036      0.72896647294756      2.18303434736417
  H           0.21534323638480      4.30335316613805     -0.62449184915316
  H           0.65207115554593     -2.10801365951726     -2.08295250743105
  H           1.56098857409064      2.61846749057440      0.61408014860851
  H          -1.42751882427003     -0.81627294762909     -1.72682687832823
  H          -2.90760875228537      2.40600600789726     -2.41570579316756
  H           1.78479356432979     -3.15135672099817     -0.13971354525900
  N          -2.68344681243615      3.11633581631014     -1.70938851103946
  C          -1.35948229311879      3.08621135900003     -1.42815315484621
  C          -0.65969797639022      2.10238525278532     -2.24856018171278
  C          -0.73982250501336      3.87416233108041     -0.32240527246917
  O          -1.30199465084289      1.40665969092306     -3.05983132896481
  C          -0.56065481478580      2.89727456073749      0.82143411771517
  C          -1.68018984582606      2.51903330699878      1.55458003273270
  C          -1.61529550312957      1.48030922219582      2.46117653757378
  C          -0.42053896902396      0.78953517712601      2.63446017350978
  C           0.72817877863180      1.23591169496654      1.99334728422905
  C           0.65561635243850      2.28674661103686      1.09833169853892
  O          -0.34630502841682     -0.35696650525081      3.40538455729020
  C          -1.19112994715350     -1.41145749431005      2.92828086862634
  C          -0.81745276603906     -1.71460745993801      1.49594040518007
  C           0.35855651691280     -2.42033863194990      1.27166201986916
  C           0.87941538016898     -2.58284011148366     -0.00071283972286
  C           0.24766101871459     -2.00043920956855     -1.08988408775343
  C          -0.91415465349502     -1.28305213147067     -0.89911731113801
  C          -1.46004527155735     -1.15408090841293      0.38030336460877
  N          -2.68957123270392     -0.45006545200556      0.46611910309142
  O          -3.50163971504284     -0.75100355459698      1.34273009888445
  O          -2.91767932391856      0.42923187350208     -0.36336142969407
  C           1.46913298965319      1.02777140200474     -2.81807578961538
  N           0.67503370477191      2.00252632304941     -2.11313086402971
  H           1.14375320971103      2.57244289760229     -1.42926076566714
  H           1.90349249612182      0.31574249782704     -2.11517455304324
  H           0.81646433423303      0.50302131009831     -3.51282760528851
  H           2.26533214679083      1.52400828606617     -3.37196809262856
  C          -3.73186157696161      3.79102339850286     -1.14173739674599
  O          -3.59833125136849      4.63830615531225     -0.26730299668198
  C          -5.05676180741341      3.37652918836648     -1.71196189781896
  H          -5.84910686593100      3.95941187757461     -1.25247555032940
  H          -5.06826091498361      3.52397453620236     -2.78850481586677
  H          -5.21441988871987      2.31979106000660     -1.50420463110678
