47
Coordinates from ORCA-job /home/esp/scriptDevelopment/drFrankenstein/11_PCY_CHARMM/04_torsion_scanning/torsion_NH1-CT1-CG321-CG2R61/scans_PCY_conformer_46/PCY_conformer_46_forwards/orca_scan E -79.896327854700
  H          -2.15163231725694     -0.84766512626038      4.48454946819274
  H          -0.74068889681090     -2.74827670742638      4.01840438473014
  H          -1.35781314718138      2.59465100047144      2.64154358475392
  H           1.56847020138810      2.93887278696838     -1.47351834424420
  H          -2.79119275410317      0.15540083620820      3.15028937559627
  H          -0.73602145384279      3.53904951173469      0.44992988565584
  H           0.72309849828704     -1.00070551177836      1.68369935147010
  H           0.86966065067126      1.49283831690177     -2.21396931639177
  H          -1.26634428533002     -4.87085203268198      0.34647639263935
  H           1.31284426884393     -0.07875549754959     -0.51972465364386
  H          -2.59498231025172     -2.97175277860134     -0.52585784441625
  H          -2.35634013877043      3.40332683386276     -2.53696875895798
  H          -0.34520117903870     -4.75014656845669      2.64532985512723
  N          -1.72553498458615      2.66599824070208     -2.20208213152454
  C          -0.44999963969183      3.14072682471453     -2.14127905832886
  C          -0.37460636497791      4.51689742658757     -2.60494329175384
  C           0.65947843319000      2.34311719056553     -1.55632843549582
  O          -1.41804367760761      5.08974910902493     -2.98937886013632
  C           0.31439072223290      1.78625184020986     -0.19332273583722
  C          -0.41527828486706      2.54191996163531      0.71547958388710
  C          -0.76405896242980      2.02141786342494      1.94658294767384
  C          -0.36999549541318      0.73539453233484      2.28643197441650
  C           0.40462235519331     -0.00776515745981      1.40535919735252
  C           0.74024555506054      0.51777698286094      0.17326127745609
  O          -0.74788260307578      0.18936737478955      3.50733603744159
  C          -1.98654151184389     -0.52063636932857      3.45571726670356
  C          -1.87410450321885     -1.72013052528756      2.54513326273865
  C          -1.14691002224456     -2.80709110454370      3.02050338383750
  C          -0.92304674564105     -3.93176477776108      2.24677188728448
  C          -1.43945838590114     -4.00258045092110      0.96066898899501
  C          -2.18098621047042     -2.94984204433353      0.47010820785317
  C          -2.39617861731995     -1.80777635882090      1.24619106817153
  N          -3.19839832136512     -0.79564365567886      0.64624401439737
  O          -3.10933682907767      0.36739322999111      1.01836220787785
  O          -3.97902749543620     -1.14126393492246     -0.23331811677311
  C           0.99546463049795      6.49461933544120     -3.06921413668775
  N           0.82349384570730      5.13542171049487     -2.61877462262877
  H           1.64904207111336      4.64392117396741     -2.31842916476666
  H           1.68322312103178      6.52974344596751     -3.91413604241413
  H           0.02185450857933      6.87051552094037     -3.37862482212597
  H           1.38373408063548      7.11592372924366     -2.26178144974924
  C          -2.25124584433905      1.41787636668686     -2.00354018899875
  O          -1.57707001519403      0.44086428841809     -1.70571104421809
  C          -3.73943966265318      1.38775534818033     -2.21208861088133
  H          -4.21840118124024      2.07848215288495     -1.52206396853846
  H          -3.98201457780090      1.68081547770229     -3.23029511997570
  H          -4.11283652345065      0.38459018889630     -2.02301288576377
