47
Coordinates from ORCA-job /home/esp/scriptDevelopment/drFrankenstein/11_PCY_CHARMM/04_torsion_scanning/torsion_NH1-CT1-CG321-CG2R61/scans_PCY_conformer_46/PCY_conformer_46_forwards/orca_scan E -79.899638337790
  H           0.21885688975653     -2.22564651357746      3.71444514700945
  H           1.41014249897784     -1.00255334907027      0.99517618527933
  H          -1.94237157728911     -0.37377659944233      1.42208996939876
  H          -2.66703618315043      4.35239128849526      0.46012332081776
  H          -1.34775885490547     -1.58020279175798      3.23625587524133
  H          -2.74676678447191      1.56887558683423      0.19925110492165
  H           1.29219291787902      1.94448868262403      2.97723584321277
  H          -1.03413909711124      4.91383231666907      0.23060113778414
  H           0.30019837242967     -3.93092219488729     -1.91008693624026
  H           0.48911276471694      3.90600270667842      1.71270676814982
  H          -1.35444515811968     -4.85281195622961     -0.31100627616808
  H          -2.63236334742221      4.38855928752721     -3.12122565613323
  H           1.70616242612494     -2.00987983906978     -1.22141378843245
  N          -2.65365133355107      4.66161293536810     -2.13164464541850
  C          -1.84381803121560      3.85008634450838     -1.40067543399352
  C          -1.14499929741176      2.89590894602774     -2.25758416827689
  C          -1.69075295197770      4.05057971003773      0.06580487151138
  O          -1.48557760006142      2.80144353270448     -3.45564040579262
  C          -1.17616109460146      2.87108351142682      0.84261754441679
  C          -1.85415836736387      1.65764703774961      0.80011183356747
  C          -1.39718510113383      0.55334799528826      1.49609223749717
  C          -0.25031922143517      0.65466369245762      2.27689715816978
  C           0.41522617969654      1.87805095571561      2.35411385256772
  C          -0.04251224000259      2.96941585703750      1.64460975681908
  O           0.30989275772664     -0.36689061723948      2.99148059923909
  C          -0.29278870045607     -1.64108172337285      2.94272609909149
  C          -0.13647264962152     -2.32800737370621      1.60923853727542
  C           0.79803965320357     -1.84101835182195      0.70257301303727
  C           0.96348253837245     -2.40796193490148     -0.54857542187200
  C           0.18166889746615     -3.48824016640747     -0.93501845911180
  C          -0.74250222585939     -4.00241397602056     -0.05340695392426
  C          -0.90230125022910     -3.44030109307863      1.21811637703014
  N          -1.85245667979939     -4.04900868895974      2.07036186547708
  O          -1.86453877651453     -3.76556298903215      3.27076255666266
  O          -2.64680325912690     -4.85798067397750      1.58485395235984
  C           0.56362796120800      1.15508246625903     -2.47535451870065
  N          -0.12462904573539      2.18765707457643     -1.74169422510407
  H           0.10247864157213      2.29553561207714     -0.76455629730149
  H           0.35267530248229      0.17832456679585     -2.03553933275073
  H           0.20670084154807      1.17465211958029     -3.50340062111337
  H           1.63706444530547      1.33737691558458     -2.45677152968938
  C          -3.50494082336989      5.66863286546280     -1.75667490008927
  O          -3.62948908763435      6.04612288125674     -0.59883703052520
  C          -4.25287478766590      6.25935664347720     -2.91679338857352
  H          -4.91111645829779      7.04435972187894     -2.55726682097365
  H          -3.55222012479499      6.67565741327474     -3.63629653028490
  H          -4.84136297813635      5.49154216517873     -3.41277226606754
