47
Coordinates from ORCA-job /home/esp/scriptDevelopment/drFrankenstein/11_PCY_CHARMM/04_torsion_scanning/torsion_NH1-CT1-CG321-CG2R61/scans_PCY_conformer_46/PCY_conformer_46_forwards/orca_scan E -79.900279321810
  H           0.11239312130354     -1.34410522990399      4.14289379315348
  H           1.29983499894482     -0.24302570268782      1.32938750405944
  H          -1.92331924782781     -0.90610853853650      1.12491553403596
  H          -4.02264117720888      2.41634659821717     -1.40178578936329
  H          -1.43356032122239     -1.45413616166863      3.30529161253168
  H          -3.19921188088139      0.34114139702575     -0.50785490951884
  H          -0.40734359297208      2.74446244618122      2.74407597130720
  H          -3.79837893375839      3.88675224763192     -0.43391238169683
  H           2.02128272827443     -3.87375325570021     -0.80306461930014
  H          -1.70596950167888      4.01592524388791      1.07482401783372
  H           0.55394845396092     -5.07423146914608      0.79402388084614
  H          -1.01507888500601      4.94924968517521     -2.49445206786694
  H           2.40087150328615     -1.44189952263061     -0.50286268860923
  N          -1.73246769946204      4.82221700939712     -1.77078281686482
  C          -2.31662775133174      3.60330848827165     -1.90482093808407
  C          -1.73546435066217      2.84947713046789     -3.00838787983912
  C          -3.28449092103420      3.05354243740039     -0.91659598454828
  O          -0.88241515014784      3.39256939282718     -3.74058094124535
  C          -2.52386643210238      2.27246196690102      0.13840963851042
  C          -2.57458730547082      0.88815632300337      0.18239090515935
  C          -1.85647596383246      0.17005914306798      1.12484647521932
  C          -1.06294408977737      0.84130646323327      2.04562316024001
  C          -1.01545190361302      2.23580369255953      2.01339876862112
  C          -1.73590224857028      2.93765054314986      1.07206283901147
  O          -0.29607609775068      0.24654887564693      3.00928683166042
  C          -0.38604230553065     -1.14994958781227      3.18720275972371
  C           0.29014494556222     -1.94880620801916      2.10221245612813
  C           1.13195270493521     -1.30132061499340      1.20537357070788
  C           1.75289028907316     -1.97862055839595      0.17110259823647
  C           1.54346683104488     -3.34076096610749      0.00217037692242
  C           0.72635385625000     -4.01296154842112      0.88335125104839
  C           0.10450839781312     -3.33259130769177      1.93589626232146
  N          -0.69701184916912     -4.10499067554653      2.81049611466703
  O          -1.06795398728353     -3.62197821087374      3.88061741095457
  O          -0.99732990343243     -5.25060500665352      2.47420213001924
  C          -1.62961063265751      0.73225991207441     -4.23800657642902
  N          -2.15827777921910      1.58665546305761     -3.20425982821879
  H          -2.80782195644501      1.17795134087653     -2.55298781771144
  H          -2.43333531428196      0.38447763997379     -4.88693627603369
  H          -0.91788156564691      1.31308905430125     -4.82177630628750
  H          -1.12284707435163     -0.12746169207112     -3.79873248882213
  C          -2.02089801146010      5.89216286971330     -0.96292730912183
  O          -2.90778874971950      5.88042514440541     -0.11895226086712
  C          -1.12483914843482      7.06951368528229     -1.21905279239733
  H          -1.38655427010438      7.87464925311351     -0.53915911252397
  H          -0.08641951371696      6.78655524871366     -1.06543382569071
  H          -1.24175231468381      7.41061756130256     -2.24472025187854
