47
Coordinates from ORCA-job /home/esp/scriptDevelopment/drFrankenstein/11_PCY_CHARMM/04_torsion_scanning/torsion_NH1-CT1-CG321-CG2R61/scans_PCY_conformer_46/PCY_conformer_46_forwards/orca_scan E -79.898517023520
  H           0.75638054893593     -2.02083871898801      3.68618039474564
  H           1.24584233522950     -0.95423603307214      0.66801772401260
  H          -1.96927007180769     -0.64903911883447      1.66887413785294
  H          -3.49413673041205      3.34666039913157     -0.17457110422663
  H          -0.93485759837172     -1.59392532829052      3.44862507394480
  H          -3.18471094135733      1.05514434834727      0.43469588530352
  H           1.19023979265456      2.13001582998394      2.40808856877877
  H          -2.42577936671039      4.56350778721880      0.46126676118825
  H           0.04735711795892     -4.31333984861845     -1.68135852582332
  H          -0.04116413426727      3.85707936263855      1.13787486352166
  H          -1.11439862662114     -5.25087721909360      0.29709789208672
  H          -2.03671933213955      5.08724985809155     -3.07059753583212
  H           1.25175305918438     -2.15669751419698     -1.46646428930381
  N          -2.45994519484304      5.01058427842980     -2.13751566286698
  C          -1.95478078183072      3.93266883951340     -1.47900840516823
  C          -1.02111152567322      3.19875493454991     -2.32875963573222
  C          -2.43515736412733      3.62402323106686     -0.10224667740894
  O          -0.72574650924142      3.67733550742074     -3.44493678623943
  C          -1.69173286718950      2.57223562317063      0.67083217994398
  C          -2.22133406087132      1.30128379763307      0.85490295689812
  C          -1.52960752466123      0.32905993993092      1.55976064874017
  C          -0.28867352612583      0.62612897283077      2.11029285128619
  C           0.23543453391439      1.91172276219936      1.95807003377555
  C          -0.45864814160901      2.86877381039704      1.25092482449162
  O           0.49926867690964     -0.25102592287484      2.80039624829361
  C           0.05347791102315     -1.57787990736272      2.97301888299720
  C           0.05592983182785     -2.38564606238647      1.69948241862992
  C           0.71847549696290     -1.89106466375722      0.58200764271417
  C           0.72268542089852     -2.57052816914769     -0.62309595743200
  C           0.05240721476941     -3.78004504184403     -0.74522252761051
  C          -0.59877638651017     -4.30457825346154      0.34869772020677
  C          -0.59725332498792     -3.62440441575797      1.57166239769932
  N          -1.26818812193462     -4.24718825417871      2.64943115623139
  O          -1.10921676465109     -3.81972331522053      3.79557648553235
  O          -1.99637264458021     -5.21376173048186      2.41124863340545
  C           0.40262258006380      1.23447118517002     -2.66803876901449
  N          -0.53029010781531      2.02228136171483     -1.90193328963969
  H          -0.80673020986032      1.67416916689754     -0.99618311837814
  H          -0.01890379290594      0.25033266930188     -2.87269153244591
  H           0.59367040002000      1.75193743873169     -3.60636185526021
  H           1.33674700140648      1.12057626176983     -2.11751255037052
  C          -3.35857449259426      5.96924126918814     -1.74829312019210
  O          -3.90861893639024      5.96903449005590     -0.65495476844617
  C          -3.59517927765076      7.00706840933596     -2.80744300814801
  H          -4.31196000286404      7.73602680013046     -2.44191546774158
  H          -2.66239769134740      7.50794750226169     -3.05399880229935
  H          -3.98304586980724      6.53751368045543     -3.70791299270035
