47
Coordinates from ORCA-job /home/esp/scriptDevelopment/drFrankenstein/11_PCY_CHARMM/04_torsion_scanning/torsion_NH1-CT1-CG321-CG2R61/scans_PCY_conformer_46/PCY_conformer_46_forwards/orca_scan E -79.894514377160
  H          -2.25773595659612     -1.14678439390066      4.46416738000589
  H          -0.69506395374349     -2.89024302654708      3.84783283696359
  H          -1.72049534367478      2.42577759973135      2.76039922955644
  H           1.41122574604300      3.34982764813563     -0.97092026627177
  H          -2.95018159493805     -0.07630940929128      3.21159942620639
  H          -1.01879630355575      3.52297626398702      0.66818950361554
  H           0.77239707646690     -0.90952883598121      1.84842500619914
  H           1.18379582546291      1.83183791773864     -1.85231400166422
  H          -1.01720748035370     -4.69405721430520     -0.01329027048382
  H           1.44453708780529      0.16138667323401     -0.26161420829566
  H          -2.49450530808799     -2.83722314285928     -0.72346739476126
  H          -2.31604416962622      3.45929626052779     -2.45430895130425
  H          -0.12892413104268     -4.71735583075662      2.30144698232519
  N          -1.71443269882576      2.75611663325990     -2.00772008254092
  C          -0.42799062063693      3.20557709911774     -2.00445791157402
  C          -0.30758044407183      4.45748820839398     -2.73697366132858
  C           0.67970951321667      2.58085465395371     -1.23060482916180
  O          -1.33246925145361      4.99180620429227     -3.21397298787761
  C           0.24580203049975      1.90866767040215      0.04766460988397
  C          -0.62720750315315      2.54792906988061      0.91967969214880
  C          -1.02075373324992      1.94180538144028      2.09679677815019
  C          -0.52430066092158      0.68813913922002      2.42422913368676
  C           0.38075095944476      0.05945437881207      1.57957391620871
  C           0.76023085272243      0.66935415588409      0.40024538238801
  O          -0.91615988017010      0.06040160059017      3.60132113367683
  C          -2.10480473916150     -0.72109089395761      3.47012646323110
  C          -1.89844225035975     -1.82399647593932      2.45940116555418
  C          -1.08851142771218     -2.88841603174338      2.84300764312737
  C          -0.76847662373406     -3.91425667299649      1.97187231166214
  C          -1.26675053390116     -3.90499415340206      0.67681769785419
  C          -2.09030913135012     -2.87552511797838      0.27593011898848
  C          -2.40521122049814     -1.83382241584817      1.15199628537396
  N          -3.29231328018533     -0.84384484988075      0.64131758886255
  O          -3.31146877743678      0.28021058521851      1.12327949734099
  O          -4.03918526530387     -1.17424052659774     -0.27237235722821
  C           1.14566303874215      6.21951389715612     -3.62455356218453
  N           0.91857939005042      4.99898103917883     -2.88963547437283
  H           1.73133234882074      4.50087573554354     -2.56589144501496
  H           1.74983553136908      6.02676980630125     -4.51157969204647
  H           0.17713426454011      6.61302581411986     -3.92780793306413
  H           1.65345655629088      6.94867143881156     -2.99356915272828
  C          -2.27752138361876      1.53840680219580     -1.73432818098298
  O          -1.63434387544442      0.55599516034400     -1.38953100490605
  C          -3.76923397898191      1.55136413666567     -1.92139383327931
  H          -4.21836954384707      2.17945574056958     -1.15446174304104
  H          -4.03103517162582      1.94540287600696     -2.89928235513424
  H          -4.15961398421251      0.54234940127209     -1.81525848376352
