47
Coordinates from ORCA-job /home/esp/scriptDevelopment/drFrankenstein/11_PCY_CHARMM/04_torsion_scanning/torsion_NH1-CT1-CG321-CG2R61/scans_PCY_conformer_46/PCY_conformer_46_forwards/orca_scan E -79.898244499750
  H          -0.61597941419844     -2.26666924304986      3.79438257794021
  H           1.28319231597193     -3.06438242870062      2.60134160276928
  H          -2.53272546076394      0.77885897523910      2.83517705420803
  H          -1.72014191336141      4.68375556937449      0.18132482700301
  H          -1.94093540827429     -1.39574957199195      2.98516031887832
  H          -2.87233205830888      2.63098515201474      1.26702015376115
  H           1.67897720148791      0.99558658971748      2.18513237417597
  H          -0.13247395418660      4.37958122813949     -0.55323245045561
  H           1.40545880057611     -2.99602890310516     -1.66978156077669
  H           1.34718944016846      2.91013033143629      0.66739493471132
  H          -0.69269938305457     -1.66808768113386     -1.68075676871108
  H          -3.22838562747029      3.18460917203083     -2.70223584075034
  H           2.37198864267729     -3.71249540141503      0.49551530442305
  N          -2.98130123283513      3.69703993391695     -1.84681264278708
  C          -1.75340987593608      3.31152559530012     -1.41969470935965
  C          -1.16226943324123      2.31760971823429     -2.30953916030482
  C          -1.07127705893263      3.91560713340265     -0.23934103930378
  O          -1.80565850388947      1.92560324277681     -3.30333108099041
  C          -0.79613746548998      2.85473690987883      0.80166602905052
  C          -1.87261833659972      2.26975531822766      1.45772364086188
  C          -1.68283218282121      1.22680115654522      2.34146992733517
  C          -0.40114626365707      0.73093627200295      2.56065174638033
  C           0.68741948830522      1.35919936009380      1.96780371519067
  C           0.48820960677453      2.42077169092506      1.10355389728347
  O          -0.16088004362042     -0.36189943797328      3.36934786000121
  C          -0.86023797554732     -1.55519553538362      3.00480159902739
  C          -0.33634457272176     -2.04461520990764      1.67536578651127
  C           0.84434896752185     -2.77797625670404      1.65867059198984
  C           1.46428966794099     -3.13144120407783      0.47217270846326
  C           0.92577887990537     -2.73064764233070     -0.74185275824933
  C          -0.23665970514932     -1.98809158915742     -0.75618204366865
  C          -0.87229313963774     -1.65400035949532      0.44049198355556
  N          -2.08086326526285     -0.91400371299075      0.31708348557440
  O          -3.00791522637882     -1.13977721332921      1.09362662789875
  O          -2.15703496975805     -0.08503138098453     -0.58759716763641
  C           0.77132572371661      0.90831645192248     -2.83126089764297
  N           0.09698503367799      1.91737516088724     -2.05318236882317
  H           0.51930364575360      2.17749767766527     -1.17583944925316
  H           1.02134137484726      0.05247715598757     -2.20397399456700
  H           0.10129963492986      0.59608155491988     -3.63024248367647
  H           1.68399667354807      1.31935283599029     -3.26324426394100
  C          -3.92780868972244      4.52277078552087     -1.29683222708154
  O          -3.77204932957521      5.11758252019898     -0.23716029464456
  C          -5.16938935741152      4.62111695556440     -2.13544691008091
  H          -5.86731687880006      5.30677215276743     -1.66465977528015
  H          -4.91927225026716      4.98046648704590     -3.13032850693294
  H          -5.63170612092931      3.64121968400359     -2.22834035207630
