47
Coordinates from ORCA-job /home/esp/scriptDevelopment/drFrankenstein/11_PCY_CHARMM/04_torsion_scanning/torsion_NH1-CT1-CG321-CG2R61/scans_PCY_conformer_46/PCY_conformer_46_forwards/orca_scan E -79.898735052310
  H          -1.33047446168042     -1.92808549402453      4.11194475151723
  H          -0.11675993996166     -3.51500639953263      2.89107748057428
  H          -1.95139736743591      1.79001398970845      3.59993432127268
  H          -1.39898159362346      4.68520616561144      0.02290530128158
  H          -2.40835246749677     -0.73736949507744      3.33132240580605
  H          -2.06741178752866      3.65209718893975      1.99377160022768
  H           1.07826237912128     -0.06716946264968      1.24204035951474
  H           0.31510715283751      4.49016342311883     -0.38979767314162
  H          -0.31430713064098     -3.74764428101539     -1.37023392138697
  H           0.96273386414179      1.79192177089868     -0.37302935537582
  H          -1.72484639397134     -1.71182005588800     -1.39129294698732
  H          -2.38468275657428      2.39900233202364     -2.68563878261147
  H           0.45707950110036     -4.66638630868429      0.79802295495718
  N          -2.31908286335483      2.92018754134145     -1.80563499942077
  C          -1.06407917444217      3.39421182568952     -1.61584434145208
  C          -0.18931489561904      3.08224510381156     -2.74121061906588
  C          -0.64077792547539      3.97534593184992     -0.31336939769950
  O          -0.65765221219939      2.49564757807095     -3.73726368804247
  C          -0.55393721985367      2.85669945291977      0.70602301680971
  C          -1.36519191929088      2.84930254901117      1.83248951850841
  C          -1.30743167005029      1.80292986500825      2.73364436900994
  C          -0.43045969047879      0.74783436521530      2.51505157889033
  C           0.39841506521125      0.75629329254368      1.39895470762878
  C           0.33271895834489      1.80529786457727      0.50288103100798
  O          -0.36700855155169     -0.31741817014960      3.39940606312878
  C          -1.44512952381961     -1.25063802815394      3.26528594091137
  C          -1.28462079475783     -1.99861525822098      1.96519870519117
  C          -0.48685953168085     -3.13653132557646      1.95132303720616
  C          -0.15176539578771     -3.77711164392014      0.77049336473748
  C          -0.58363622183177     -3.26563698027241     -0.44484523052399
  C          -1.36722702176039     -2.13178258310643     -0.46393157771932
  C          -1.73376468680864     -1.50564517311774      0.73004443834744
  N          -2.59453552309508     -0.38252457289544      0.60589742363900
  O          -3.40034002336130     -0.12609280427564      1.50124142251896
  O          -2.53349888405155      0.28222047372473     -0.42924147954196
  C           2.05027462166408      3.20178196887936     -3.72940059193595
  N           1.10523746756729      3.45017850431412     -2.66870361441923
  H           1.44674777587830      3.92943153356690     -1.85142564079141
  H           2.86897468405391      2.57912096859475     -3.36817982741877
  H           1.52613810956767      2.68380624924062     -4.53048841622951
  H           2.45186675657505      4.14212829069582     -4.10714649491922
  C          -3.46820067316441      3.08787542855111     -1.07431491349585
  O          -3.52313577024450      3.76984900727731     -0.06203513899789
  C          -4.64081974110110      2.36640978740673     -1.66952747532891
  H          -5.52843771019409      2.56830665123024     -1.07807821941175
  H          -4.80001299114336      2.67910371271376     -2.69777708599488
  H          -4.43041182203143      1.29889522002556     -1.65453236077437
