47
Coordinates from ORCA-job /home/esp/scriptDevelopment/drFrankenstein/11_PCY_CHARMM/04_torsion_scanning/torsion_NH1-CT1-CG321-CG2R61/scans_PCY_conformer_46/PCY_conformer_46_forwards/orca_scan E -79.891445227150
  H          -2.15300073162136     -1.48329776409619      4.45240572945573
  H          -0.49826751432409     -3.00985339753064      3.50929564568573
  H          -1.97835087134277      2.16198953949760      2.96292117557413
  H           0.90409139502600      3.93083402289148     -0.44748002821630
  H          -2.93409370087177     -0.27740166693715      3.39041730414082
  H          -1.32746821044158      3.49451295302593      0.99749835133069
  H           0.96429206069754     -0.75496098735787      1.96161646501110
  H           1.47325856930810      2.48247380208963     -1.28886191301683
  H          -1.00703388556209     -4.33945879199315     -0.52044965882599
  H           1.60202013692135      0.55909609384276     -0.02152974658682
  H          -2.65232381954007     -2.52533452510206     -0.87778114110896
  H          -2.23555113219203      3.31081860056396     -2.60068027122606
  H           0.06292936071738     -4.58376769346785      1.70316091785149
  N          -1.71419184752980      2.74392561245275     -1.91646213496589
  C          -0.42849354445684      3.19630328608237     -1.88993375378857
  C          -0.21687875193132      4.20328628008171     -2.92292168522760
  C           0.59473217328123      2.95134889648659     -0.83123465386302
  O          -1.15819017498989      4.50883669497576     -3.68752031051157
  C           0.17420221290598      2.11302864665961      0.34409937704564
  C          -0.82174805861116      2.56228752058009      1.20380437885443
  C          -1.18901014180238      1.82254026006595      2.31015549247742
  C          -0.54407322288545      0.62274881376915      2.57801277967190
  C           0.46785688846426      0.17699236514827      1.73961125945078
  C           0.82398688621334      0.92221718086776      0.63250932874022
  O          -0.88275754564468     -0.13751244222333      3.69165598985651
  C          -2.06181303145021     -0.92400862305011      3.51852589280519
  C          -1.87509304706598     -1.87390090483352      2.35890666433001
  C          -0.96912043188043     -2.91372493461883      2.54295905536822
  C          -0.65219295088229     -3.79635290773468      1.52638277855572
  C          -1.25163826122597     -3.66340941712041      0.28222283670741
  C          -2.16931907003101     -2.65634406987179      0.07759133913235
  C          -2.48205309536264     -1.75780974909795      1.10077394336936
  N          -3.46636779886524     -0.77957551874398      0.78339719215573
  O          -3.54451126378279      0.25778464902588      1.42556349976266
  O          -4.24063776345078     -1.03456682916500     -0.13195955430128
  C           1.32581380347315      5.75035739211703     -4.03303815901787
  N           1.00184527462923      4.77116214035810     -3.02409882626112
  H           1.74782521089539      4.47066700319990     -2.41902630899300
  H           2.09746226644732      5.36902784670791     -4.70237890708938
  H           0.42219332852566      5.95459078416506     -4.60448224779750
  H           1.67591959108423      6.67065364400605     -3.56595846925961
  C          -2.34267576700011      1.59850082707127     -1.50280355379068
  O          -1.77984199170382      0.66801268811510     -0.94198919879898
  C          -3.81057930657739      1.62006247462043     -1.83328396053199
  H          -4.30464829247218      2.36793185487606     -1.21634754520375
  H          -3.96712561045218      1.86790573367536     -2.87927365288842
  H          -4.25036832263981      0.64941261592491     -1.61798171606205
