47
Coordinates from ORCA-job /home/esp/scriptDevelopment/drFrankenstein/11_PCY_CHARMM/04_torsion_scanning/torsion_NH1-CT1-CG321-CG2R61/scans_PCY_conformer_46/PCY_conformer_46_forwards/orca_scan E -79.901181806700
  H          -0.06422826213184     -2.22605433817752      3.71923439307680
  H           1.34484865485987     -1.05627865879062      1.07063660989842
  H          -1.96440832766160     -0.22507662485269      1.31968325607043
  H          -2.18943856908091      4.67702251582759      0.46451170509920
  H          -1.55573941038369     -1.47967658850049      3.15494917128209
  H          -2.56574266103461      1.76944056126777      0.06725222692287
  H           1.32049044794173      1.86613646803011      3.07734018601309
  H          -0.50454653373044      4.89960821971498      0.03184272135629
  H           0.22813392730048     -3.90812108088373     -1.90709571881669
  H           0.72495921831109      3.88003787979564      1.78154012682146
  H          -1.55357386098226     -4.74529291997654     -0.40061221189598
  H          -2.74891013065214      4.15327060016683     -3.03067117767426
  H           1.69723466882752     -2.06798787131663     -1.13541782522566
  N          -2.69488260201939      4.49155282341611     -2.06263445787689
  C          -1.67249760521790      3.88048886003732     -1.41012302912258
  C          -0.95529739372911      2.95423849610426     -2.27955459904151
  C          -1.33034351727332      4.17957859953261      0.00552157922998
  O          -1.38283447763540      2.74673637005669     -3.43418590849174
  C          -0.95426606082129      2.96289096600484      0.81183588912405
  C          -1.70544028289148      1.79796791618919      0.71937377887372
  C          -1.36486748252539      0.66366223696248      1.43407297636413
  C          -0.26216119570598      0.68529230419892      2.28085248697853
  C           0.47753405162512      1.86121925447488      2.40555571878097
  C           0.13623035430156      2.98159474800005      1.67703135163555
  O           0.18775541688766     -0.37459897768035      3.01817686660463
  C          -0.49109749166372     -1.60682375627927      2.92340483274930
  C          -0.30206537470617     -2.29673805598944      1.59577155154732
  C           0.70348922311131     -1.85855003536167      0.74155141249128
  C           0.90144609850863     -2.42855305396073     -0.50333252958782
  C           0.08367644176621     -3.46351707309013     -0.93643692945680
  C          -0.91083332573363     -3.93020490126370     -0.10645471049536
  C          -1.10552245719564     -3.36427963439064      1.15836655101257
  N          -2.13020923368598     -3.92413405949285      1.95729782199937
  O          -2.19132546353070     -3.64062931335916      3.15504699205077
  O          -2.93609092532138     -4.69152959158289      1.42813236202556
  C           0.89140007506238      1.36687509326773     -2.53231052610457
  N           0.17315012784212      2.38822825531075     -1.81161565876789
  H           0.43912698750404      2.55093956034031     -0.85211316597020
  H           0.76372801260310      0.39857193011500     -2.04379387583345
  H           0.48604260301404      1.31701533723689     -3.54122973147117
  H           1.95032718625703      1.61616690810950     -2.57374344195972
  C          -3.64991818061550      5.37899098315621     -1.63818783221888
  O          -3.69686457505782      5.82398426539161     -0.49811967331621
  C          -4.62148282676318      5.74839991250726     -2.72144313562843
  H          -5.34857510735426      6.45139023021742     -2.32659686261179
  H          -4.09244594984118      6.20406451060188     -3.55478101806457
  H          -5.13495421077786      4.86071072891406     -3.08251854837621
