47
Coordinates from ORCA-job /home/esp/scriptDevelopment/drFrankenstein/11_PCY_CHARMM/04_torsion_scanning/torsion_NH1-CT1-CG321-CG2R61/scans_PCY_conformer_46/PCY_conformer_46_forwards/orca_scan E -79.899360915330
  H           0.83962607757791     -1.90865971402225      3.69077160854665
  H           1.22029326915135     -0.96122309359961      0.61651506462962
  H          -1.97002865936372     -0.71798503563988      1.67390244240592
  H          -3.61196609510525      3.04884872465273     -0.48099988028031
  H          -0.86957518230719     -1.54542908824836      3.47626702405961
  H          -3.27222558481771      0.89141753928279      0.40363562107359
  H           1.09930892961027      2.19958485763641      2.23883462130188
  H          -2.82779780993166      4.35246309487283      0.37074212642046
  H           0.08115120681004     -4.46079700342912     -1.55077115947938
  H          -0.22298274131331      3.83178933825124      0.93343883611638
  H          -1.00006497871803     -5.34595705820009      0.49623616185846
  H          -1.89417040119195      5.25825124477900     -2.96677083103415
  H           1.21456609951227     -2.25739191341341     -1.46301887631882
  N          -2.40916677024342      5.10040204607051     -2.09210650414631
  C          -2.00381479280605      3.93937714611712     -1.51176144241797
  C          -1.02482688140298      3.25069813767102     -2.34858970263491
  C          -2.62652992478031      3.46898532712740     -0.24376785681902
  O          -0.57803257027565      3.83647097096382     -3.35750048002574
  C          -1.83315986292572      2.47082829605929      0.55208727811395
  C          -2.31042393693278      1.18954155265252      0.79307426265466
  C          -1.56947848176793      0.27086162931202      1.51984323521933
  C          -0.32961239760658      0.63318444936987      2.03118133196562
  C           0.14354664211195      1.93020902215552      1.81939384178741
  C          -0.60002905836368      2.83350155678855      1.09308614818980
  O           0.50494884938826     -0.18858808953026      2.73519315415426
  C           0.10654249102486     -1.51983862151144      2.97635278792867
  C           0.10538515298951     -2.38334057316955      1.74001704098199
  C           0.72355921975245     -1.91806098779619      0.58515532845843
  C           0.72140260714683     -2.65039999476957     -0.58855598948049
  C           0.09052938058281     -3.88596467248585     -0.63959502027036
  C          -0.51603074037266     -4.38175425836993      0.49269432845952
  C          -0.50869215719080     -3.64711106606848      1.68369389130935
  N          -1.13401170905358     -4.24126377114805      2.80436943273305
  O          -0.96284511811209     -3.75736188709119      3.92574758275751
  O          -1.83588367010387     -5.23951252180665      2.62724109406269
  C           0.31654600855245      1.24441373052850     -2.76931410192092
  N          -0.66908731911017      1.99344933978118     -2.03086831155088
  H          -1.05539390305417      1.56807990978248     -1.20137031028568
  H          -0.11192002408188      0.30497842916291     -3.11713714519396
  H           0.62709068752716      1.84294819399253     -3.62374413198358
  H           1.18107945384647      1.03609636222830     -2.13782652549688
  C          -3.28595366273913      6.06745443484090     -1.67370121014347
  O          -3.92577153751041      5.98993471160618     -0.63275783269471
  C          -3.38008013839112      7.21981702302886     -2.63162403269232
  H          -4.09608209942873      7.94311827182199     -2.25346109325212
  H          -2.40851018470162      7.69534725789607     -2.74034538392770
  H          -3.70241768188028      6.86661675186711     -3.60787642313916
