47
Coordinates from ORCA-job /home/esp/scriptDevelopment/drFrankenstein/11_PCY_CHARMM/04_torsion_scanning/torsion_NH1-CT1-CG321-CG2R61/scans_PCY_conformer_46/PCY_conformer_46_forwards/orca_scan E -79.899435844720
  H          -0.92193076513679     -2.26703620735820      3.62204670360863
  H           0.90746800217395     -3.06304607424042      2.34435858005435
  H          -2.49550027152188      1.13254060118154      3.10127599239032
  H          -1.56014867378334      4.64458479434615      0.04859743502119
  H          -2.16394528563620     -1.19383756072448      2.92764638476202
  H          -2.70086188604998      2.97240850198963      1.48432516024291
  H           1.64652647043384      0.76207330964150      2.15730749230893
  H           0.04392889126722      4.27197908891311     -0.62886884266145
  H           1.07304835743375     -2.52419076214449     -1.89089466296136
  H           1.46775223453299      2.66213833182646      0.60437499811384
  H          -0.90011625978470     -1.02549186705203     -1.74875451415784
  H          -3.08526636319667      2.69563117343858     -2.55225529320715
  H           1.95840440901203     -3.55886500213090      0.17926215148395
  N          -2.85387243050546      3.29329038232189     -1.74927761204480
  C          -1.56460262239578      3.09962478455638     -1.39268062446904
  C          -0.89808182315064      2.15712716257630     -2.29208937583680
  C          -0.89954793937058      3.84507822776488     -0.28355984105649
  O          -1.53788175762502      1.64781597413485     -3.23094227593257
  C          -0.65770263907410      2.87768230783834      0.85512077896298
  C          -1.74742364134153      2.48526777618939      1.62474725383162
  C          -1.63396886419235      1.45511909643387      2.53538572569749
  C          -0.42237424533403      0.78451912193038      2.66800422638326
  C           0.69930246755170      1.25158042862246      1.99628007203879
  C           0.58053503429663      2.30284329231455      1.10461509833136
  O          -0.31402442802671     -0.36372646100025      3.43425554573108
  C          -1.10062846717031     -1.44729140056629      2.92545051613878
  C          -0.61298723605940     -1.81340333222287      1.54252549656365
  C           0.50286122523654     -2.63571666895522      1.44034906429962
  C           1.10294588602778     -2.90430759333012      0.22181902508547
  C           0.61101935702259     -2.32367024903772     -0.93786248355490
  C          -0.48470052799568     -1.48938561586197     -0.86669740704565
  C          -1.10536232615110     -1.24068122040025      0.35922845475332
  N          -2.25289124271375     -0.40473652806058      0.30850982129495
  O          -3.17942712826750     -0.58925544138422      1.10366642326652
  O          -2.29312256417261      0.47320768654233     -0.55800568392422
  C           1.17082395928550      0.97864462258365     -2.87543522162450
  N           0.41071007009041      1.92224186276794     -2.09364215026935
  H           0.84945855041180      2.28821987114594     -1.26475002306352
  H           1.48983998267273      0.14107425733264     -2.25384828244909
  H           0.53351630934908      0.61584326297055     -3.67951626236934
  H           2.04609010576845      1.47011583343503     -3.29909352488160
  C          -3.87692381020937      3.98827267357743     -1.15426767350159
  O          -3.73669224703027      4.65848152650246     -0.13977037611131
  C          -5.17826957086644      3.84019486134512     -1.88672268807985
  H          -5.93540388417602      4.45199216071276     -1.40577285185061
  H          -5.06256383319985      4.14519423744945     -2.92333040858659
  H          -5.48899857842882      2.79788477208436     -1.86510432072537
