47
Coordinates from ORCA-job /home/esp/scriptDevelopment/drFrankenstein/11_PCY_CHARMM/04_torsion_scanning/torsion_NH1-CT1-CG321-CG2R61/scans_PCY_conformer_46/PCY_conformer_46_forwards/orca_scan E -79.900323128710
  H           0.84683836073904     -1.79569722286730      3.71720282167584
  H           1.18380602608297     -0.94236865717800      0.59572773378043
  H          -1.98211200783028     -0.76411748815999      1.63709528560866
  H          -3.67493657165492      2.83885084730600     -0.74219264828458
  H          -0.87098397538221     -1.49285857871847      3.47909259390365
  H          -3.33193851191625      0.76772042329487      0.32202946707478
  H           0.98292100779628      2.27026871298860      2.14100531047926
  H          -3.11817819733860      4.18064126743521      0.23262768717936
  H           0.18994422306014     -4.57205201080514     -1.42400492162595
  H          -0.38851480051878      3.82356070404246      0.79169240544127
  H          -0.83719079760306     -5.42348906834437      0.66458897387909
  H          -1.78512788648562      5.36812577066857     -2.86960706793224
  H           1.22387315836443     -2.31877854545333     -1.43123598674247
  N          -2.35937630458182      5.16215017312082     -2.04325951215832
  C          -2.06030132736608      3.92680597086545     -1.56260709928785
  C          -1.07108434310156      3.25736077068599     -2.40202911259449
  C          -2.77106793451361      3.35015557512549     -0.38933085367075
  O          -0.53195739338755      3.89664575830563     -3.32962417159441
  C          -1.94992225858805      2.39982095225763      0.43957519223026
  C          -2.38306170803249      1.10871268589233      0.70828804056299
  C          -1.61557275345129      0.23433423072262      1.46149024529769
  C          -0.39155978991151      0.65149528082205      1.96887619472356
  C           0.03817804165200      1.95804912318620      1.72622902112630
  C          -0.73220967505273      2.81709231964106      0.97474930879194
  O           0.46777955725395     -0.12370231277080      2.69615790016249
  C           0.10751623545584     -1.45637796386505      2.98422897930714
  C           0.13916316192730     -2.36657199184921      1.78234501110303
  C           0.73010300202982     -1.92079707703986      0.60573086565553
  C           0.75422414332173     -2.69853135771681     -0.53818966716956
  C           0.17903426619608     -3.96198407726806     -0.53606696314790
  C          -0.39766208941760     -4.43924945192673      0.61951231321391
  C          -0.41692558795773     -3.65826953676330      1.78053757433226
  N          -1.00633851446719     -4.23660043616747      2.92905405691601
  O          -0.86324058442408     -3.69396183840613      4.02668002658111
  O          -1.64796780750419     -5.28101570519663      2.79916222851934
  C           0.18878956876091      1.21705794877481     -2.90309097663361
  N          -0.81012491655065      1.95750375663721     -2.17388456727883
  H          -1.25336741328474      1.49793531782192     -1.39246745943482
  H          -0.25290347967992      0.31941685208539     -3.33405427438253
  H           0.56975280094768      1.85527601739071     -3.69823903981541
  H           1.00821171654807      0.93508488672987     -2.24038020768536
  C          -3.19408500892191      6.14465259333930     -1.57715415882506
  O          -3.89947344920747      6.01401421386424     -0.58469372807064
  C          -3.15384151415129      7.38751622478535     -2.41846052729572
  H          -3.83699494181056      8.12309394733365     -2.00492207355365
  H          -2.14668025562638      7.79660946994175     -2.43294519059523
  H          -3.44642347041596      7.15450152543124     -3.43922902976655
