47
Coordinates from ORCA-job /home/esp/scriptDevelopment/drFrankenstein/11_PCY_CHARMM/04_torsion_scanning/torsion_NH1-CT1-CG321-CG2R61/scans_PCY_conformer_46/PCY_conformer_46_forwards/orca_scan E -79.901446029410
  H           0.77076652471620     -1.58312181764666      3.81997880443477
  H           1.25403771021027     -0.87996938329444      0.69236110992193
  H          -1.96959048493571     -0.83963489938659      1.50903316466206
  H          -3.73355109382730      2.54518883990687     -1.12651861056542
  H          -0.94642339303187     -1.39039322958010      3.47956803646457
  H          -3.35500951313379      0.55628960457878      0.08640716723050
  H           0.72063159332739      2.42577532770254      2.10310073738291
  H          -3.48027321694391      3.91874599797212     -0.05305132893379
  H           0.53997146996276     -4.64585946194199     -1.19369102508805
  H          -0.69017679974311      3.84275103451040      0.65077129532804
  H          -0.58360060144701     -5.43736975676916      0.86929965480549
  H          -1.62263559947226      5.45098847504711     -2.70386189867315
  H           1.48013201319774     -2.35336430170137     -1.25436178647284
  N          -2.25546217703981      5.18973842515351     -1.93833694731826
  C          -2.16679120168329      3.85730123108592     -1.69473459096445
  C          -1.21921760697697      3.20344084847612     -2.58865395052623
  C          -2.96519080059986      3.16233403188670     -0.64968572265168
  O          -0.59005265836149      3.88785144929750     -3.42199600983523
  C          -2.11591214157941      2.29594435753803      0.24839292509061
  C          -2.45839300159613      0.97822318222075      0.51583397808487
  C          -1.67179967542735      0.18124999403604      1.33200606711614
  C          -0.51559000521042      0.70277904515242      1.89820493930823
  C          -0.17338158590150      2.03275623521010      1.64653842257480
  C          -0.96438025215146      2.81515257536643      0.83454365206658
  O           0.35512656666214      0.01134311414021      2.69403864795292
  C           0.05390533080860     -1.32409549257022      3.03377160394516
  C           0.19943674893609     -2.29063245158958      1.88567626344455
  C           0.84351775267980     -1.87690093462738      0.72527923794262
  C           0.97107317108730     -2.70856192004018     -0.37285541810291
  C           0.44831205766570     -3.99429456328614     -0.34060635703204
  C          -0.18084725168297     -4.43884049184775      0.80064551571900
  C          -0.30312251667015     -3.60335368919455      1.91624473013756
  N          -0.94122119714281     -4.14868057373029      3.05573704117136
  O          -0.86609453432569     -3.55949243829021      4.13474934734849
  O          -1.55482281093352     -5.20951486019748      2.93440273067540
  C          -0.13205298886412      1.12065475662909     -3.27902005221079
  N          -1.08755230585821      1.86633122376332     -2.49849094768131
  H          -1.56898790614698      1.37484900489739     -1.76079103208715
  H          -0.63235220473253      0.31186261625312     -3.81009712566769
  H           0.32184169119826      1.80218384461371     -3.99619798094083
  H           0.64314227288789      0.70455711307556     -2.63394881574675
  C          -2.97915921644590      6.18574164571077     -1.33459567313479
  O          -3.75286838135283      5.98905171804505     -0.40564548786058
  C          -2.72183716095644      7.53670854090563     -1.93695760361296
  H          -3.32769679024411      8.27849758266269     -1.42556341273698
  H          -1.67093086997562      7.79670463686096     -1.83696829112008
  H          -2.97590695894544      7.52711381299499     -2.99394500384462
