47
Coordinates from ORCA-job /home/esp/scriptDevelopment/drFrankenstein/11_PCY_CHARMM/04_torsion_scanning/torsion_NH1-CT1-CG321-CG2R61/scans_PCY_conformer_46/PCY_conformer_46_forwards/orca_scan E -79.897142866980
  H          -1.95493214210263     -0.61036152195030      4.51650833951655
  H          -0.68164819718778     -2.60859243853433      4.03436327061127
  H          -1.02938605673908      2.70650861937282      2.55508726099001
  H           1.54946553384993      2.63546314084638     -1.89441334869854
  H          -2.56022198847714      0.41355173984767      3.18168457307983
  H          -0.54116777249452      3.51734415726330      0.28091069558610
  H           0.82538294687260     -1.01903326036252      1.63033742810481
  H           0.60592941463959      1.22979636519589     -2.40051750331462
  H          -1.50247449946271     -4.76480832970376      0.43685540465559
  H           1.29069039569312     -0.22461194881865     -0.65330858018349
  H          -2.73897140777571     -2.79908725947513     -0.42243462354279
  H          -2.40772781300413      3.22818571048210     -2.78313757876550
  H          -0.47811698100127     -4.66001677080889      2.69283554256525
  N          -1.77623642420928      2.49072587868872     -2.45348776043917
  C          -0.52877580349150      2.99650101517012     -2.24575976175813
  C          -0.47275724552744      4.42500861610213     -2.49896981518392
  C           0.58817585144979      2.13258486463917     -1.78465761223944
  O          -1.48678454777655      5.01320159157665     -2.93371268349546
  C           0.39191556564742      1.69315102447501     -0.34824089361596
  C          -0.23090671601675      2.52447870475116      0.57320875714131
  C          -0.50753158478140      2.07747791956271      1.85077034380534
  C          -0.15318078267642      0.78829010764895      2.21980463998939
  C           0.53321386570281     -0.02518229283195      1.32773346212139
  C           0.79840249438708      0.42791973353874      0.05073579441008
  O          -0.50880930095616      0.29696580303778      3.47062163080751
  C          -1.79972520981337     -0.31627360956681      3.47638108338349
  C          -1.80861878177740     -1.53766495324993      2.58727740942613
  C          -1.13402759954936     -2.66080887613712      3.05611804050290
  C          -1.01777037588515     -3.81332202120024      2.29990511093027
  C          -1.59222110624693     -3.87528564505005      1.03831230394561
  C          -2.28395640916197     -2.78564624074180      0.55555708271520
  C          -2.39149531571210     -1.61691040436339      1.31382431894543
  N          -3.15088291059030     -0.56702454031535      0.72139736475559
  O          -2.96001361571600      0.59682695110317      1.05083604438939
  O          -3.99628561320178     -0.87952702115207     -0.10797112905069
  C           0.83532160902104      6.49690235900322     -2.44648775809769
  N           0.68545133638172      5.07509178528703     -2.25890036611096
  H           1.45259629635388      4.58470209221213     -1.82888881146820
  H           1.68082213816877      6.70030935004598     -3.10294806358664
  H          -0.07919007317152      6.87232392703185     -2.90240145535716
  H           0.99240160547862      6.99693257166505     -1.48984980164909
  C          -2.29773590414043      1.24243414254775     -2.24413285428853
  O          -1.64165044257568      0.29874237236447     -1.82214960249074
  C          -3.75461220915125      1.15886438215718     -2.60500510852695
  H          -4.30759126329008      1.95724574003726     -2.11728581395988
  H          -3.87426559925910      1.25377846933883     -3.68158255863859
  H          -4.15108736072341      0.20087799926906     -2.27881241791635
