47
Coordinates from ORCA-job /home/esp/scriptDevelopment/drFrankenstein/11_PCY_CHARMM/04_torsion_scanning/torsion_NH1-CT1-CG321-CG2R61/scans_PCY_conformer_46/PCY_conformer_46_forwards/orca_scan E -79.900571032300
  H           0.07747884575961     -2.23375292148678      3.71534043004830
  H           1.38182334591086     -1.03427544362323      1.03207789282957
  H          -1.94720115526658     -0.29783873364445      1.36655657020814
  H          -2.41250425041303      4.53669576068483      0.47923081007124
  H          -1.45114055853654     -1.53250688919032      3.19431493467380
  H          -2.64659946496447      1.67669813686092      0.13148121591097
  H           1.31344378511238      1.90065138225857      3.03680153683141
  H          -0.74251441327640      4.91315243700253      0.12663093011970
  H           0.26020752213651     -3.91637682041072     -1.91464648913940
  H           0.61815704664334      3.89384431321077      1.75883500530336
  H          -1.46145983217433     -4.79515961766422     -0.36283873135532
  H          -2.69849020123610      4.26864835257817     -3.07760646387885
  H           1.70371119949343     -2.04046170069794     -1.18142852062232
  N          -2.68148387393709      4.57681168238124     -2.09814108214636
  C          -1.76082249675012      3.86298580991128     -1.39838756161836
  C          -1.05193470172267      2.92155365855149     -2.25990024845377
  C          -1.49832677012755      4.12296032694809      0.04218199093379
  O          -1.44079950871812      2.76652971076235     -3.43652710542982
  C          -1.05442455216313      2.92149658899470      0.83226446478798
  C          -1.77066577168925      1.73241424979915      0.76048033566081
  C          -1.37383691692990      0.60991490915331      1.46431931231439
  C          -0.24957639672586      0.66786428353855      2.28112502793748
  C           0.45418109856821      1.86744120371699      2.38690271245145
  C           0.05676932864844      2.97655614536952      1.66913309089567
  O           0.25393821633484     -0.37648676063638      3.00545393570259
  C          -0.39052803986097     -1.62864421172999      2.93184893920603
  C          -0.21935747517955     -2.31495855905328      1.59990156230807
  C           0.75257778296431     -1.85274441458517      0.71989514660650
  C           0.93293291391589     -2.41926077677782     -0.52931887775883
  C           0.12979739455002     -3.47433843756490     -0.94082083451459
  C          -0.83147225512922     -3.96435745403669     -0.08551853711893
  C          -1.00738754124307     -3.40240488361416      1.18388598205211
  N          -1.99707944279402     -3.98614689942923      2.00880860320012
  O          -2.03363551467202     -3.70448344487747      3.20853052401532
  O          -2.79919081203705     -4.77199025534134      1.50015521876655
  C           0.72974328040837      1.25792723146380     -2.49125192773158
  N           0.02822829376504      2.28831663991068     -1.76705274705513
  H           0.27809649643281      2.42812653797503     -0.79952390964096
  H           0.56538402969898      0.28740231122055     -2.01861314778506
  H           0.34158811249639      1.23505864674169     -3.50787345725731
  H           1.79619502498169      1.47666323828031     -2.51064276373924
  C          -3.59438467894933      5.52087342534076     -1.70458883346360
  O          -3.68944445269920      5.92629817744178     -0.55297587497338
  C          -4.45302789725840      6.00562359235141     -2.83677377036666
  H          -5.14612004343709      6.75469370392918     -2.46623583740011
  H          -3.83085902076707      6.44065021605074     -3.61488355027588
  H          -5.01097567916284      5.17636555193549     -3.26459590110993
