47
Coordinates from ORCA-job /home/esp/scriptDevelopment/drFrankenstein/11_PCY_CHARMM/04_torsion_scanning/torsion_NH1-CT1-CG321-CG2R61/scans_PCY_conformer_46/PCY_conformer_46_forwards/orca_scan E -79.898703022840
  H           0.38128322830172     -2.19280347943843      3.71614180245936
  H           1.39662923689899     -0.95954679378149      0.92540359179190
  H          -1.95250106732817     -0.45925981417864      1.50097599473623
  H          -2.96631248164816      4.08938562213207      0.36638289602182
  H          -1.22884279742519     -1.61767096513756      3.29727867757956
  H          -2.88205958879971      1.43077147430023      0.28433688313459
  H           1.26299021774131      2.00042502910201      2.86660705343414
  H          -1.41791731569205      4.87954479155704      0.35143137800255
  H           0.28943786902238     -3.98285717763151     -1.88166603443403
  H           0.33083697318507      3.90984184422233      1.60971332716364
  H          -1.24551764672048     -4.95182066744915     -0.19377326882342
  H          -2.49310520329158      4.56751525935577     -3.16171252195541
  H           1.63635648643392     -1.98885102761759     -1.28703914827844
  N          -2.60074696866955      4.76360611597843     -2.15941595739684
  C          -1.90320142935653      3.85783728505681     -1.42203130188738
  C          -1.18043686154235      2.92982518689451     -2.28748627221525
  C          -1.92201664527857      3.94841606090902      0.06460670448598
  O          -1.40438294762526      2.96058916301849     -3.51651790611469
  C          -1.33206618804323      2.80015149557707      0.83291743413060
  C          -1.96691028502307      1.56255023718162      0.84130451162903
  C          -1.43844575198015      0.48771078601964      1.53361659878468
  C          -0.26167005684442      0.64379919727622      2.25885857240252
  C           0.36201652172218      1.89146786189526      2.28514864505467
  C          -0.16772066409401      2.95335506049880      1.58118902419020
  O           0.36687328875338     -0.34334078533446      2.96428512376710
  C          -0.18577233611085     -1.64096829616656      2.95921341466662
  C          -0.05902248686713     -2.34206467052494      1.62998526553980
  C           0.81001909231424     -1.82903221893570      0.67399469716919
  C           0.94410287982173     -2.40886746055095     -0.57502077959328
  C           0.19564473948952     -3.52953989667290     -0.90876067937411
  C          -0.66245763464822     -4.07019456531491      0.02242669908743
  C          -0.78966237898067     -3.49474669413479      1.29169619963398
  N          -1.66928416086506     -4.13233587422573      2.19669043689372
  O          -1.64345315944187     -3.82463431272236      3.39115633631947
  O          -2.44139407252530     -4.99104173777711      1.76284519833851
  C           0.42883838693429      1.09762133484925     -2.50881433648227
  N          -0.26895082993332      2.10260005421295     -1.74640622635099
  H          -0.12124875961452      2.12055458310583     -0.74860198723589
  H           0.13665591134109      0.10177618316478     -2.17089335277871
  H           0.16014209271283      1.21978181779977     -3.55646630068757
  H           1.50466101466352      1.21971221659701     -2.39054088859178
  C          -3.42685989465166      5.79047022655432     -1.78257319575230
  O          -3.64840952271649      6.07798377568323     -0.61386304516044
  C          -4.01655638439246      6.52129197906315     -2.95416729874796
  H          -4.65204117479290      7.32428007434486     -2.59338963773611
  H          -3.22323160509541      6.93588628371202     -3.57098172413754
  H          -4.60527963933767      5.83885543753206     -3.56207460268285
