47
Coordinates from ORCA-job /home/esp/scriptDevelopment/drFrankenstein/11_PCY_CHARMM/04_torsion_scanning/torsion_NH1-CT1-CG321-CG2R61/scans_PCY_conformer_34/PCY_conformer_34_forwards/orca_scan E -79.896868738050
  H          -2.40454001827079     -0.50618967212159      4.51631154590991
  H          -3.18320596716291     -2.53406163438825      1.99376180329913
  H           0.01307885908209      2.71992267132241      2.89842862086932
  H           0.65665495149467      3.69557462297860     -1.61492072996687
  H          -3.15981888246943     -0.36876183367520      2.90618521176034
  H           0.69922100277954      3.68600525156390      0.73431018267267
  H          -2.12634579452139     -0.35162539559277      0.84184507750969
  H           0.77292372890671      2.07093242139206     -2.25549119009287
  H           0.42799303697690     -4.77728247859860      1.57701358073889
  H          -1.45192701770749      0.60579946848159     -1.29040831312921
  H           1.60979908915477     -3.10152067974621      2.97561597003798
  H          -1.69562671111922      3.24320746500586     -4.56630546451894
  H          -1.99069187860133     -4.50134303786879      1.13680888434471
  N          -0.83783108344283      2.96188097509304     -4.07746005847306
  C          -1.02084856051869      3.05135884173891     -2.72961693513793
  C          -2.33883723467571      3.57618727905768     -2.40930494385615
  C           0.08562981074554      2.77258292866361     -1.77334190880871
  O          -3.16603683501742      3.75162200727082     -3.33093411444416
  C          -0.34458680336333      2.22297450268150     -0.43981102578383
  C           0.07104762550113      2.80828571080289      0.75334318722990
  C          -0.30666821006772      2.27656623318717      1.96873612437302
  C          -1.11096988136214      1.13828500820304      2.02290194731628
  C          -1.52041135464659      0.53853645647403      0.83717308139000
  C          -1.13354157150638      1.08128042663427     -0.37519792460679
  O          -1.42938395009502      0.70889429511603      3.28065091669031
  C          -2.20827902629345     -0.46568998217896      3.44051901786134
  C          -1.48920498969299     -1.71585930219967      2.99789389880356
  C          -2.13657498967394     -2.66769158159530      2.22060515852712
  C          -1.46187938448613     -3.77318824244732      1.73037372300518
  C          -0.10647125029944     -3.93204134936749      1.97803088882222
  C           0.55929062802903     -3.00160232211780      2.75057707371434
  C          -0.13558343056710     -1.91790122430116      3.28198328197576
  N           0.58870346621693     -1.04593381031658      4.15031615292968
  O           0.04107434120063     -0.63346556293502      5.16149625367662
  O           1.75326792019098     -0.79592552164713      3.86407604669743
  C          -3.89687911209319      4.38987378862259     -0.70310606986267
  N          -2.61180853055527      3.89518166412425     -1.12916069141328
  H          -1.91929351367052      3.71295001661248     -0.41855428840221
  H          -4.52820875321715      4.48705821298401     -1.58458217781055
  H          -4.35588511893841      3.69415101784747      0.00009242736206
  H          -3.78702660265639      5.36314781147042     -0.22499185733079
  C           0.21166572946159      2.51047939861767     -4.82893445660976
  O           1.26762930733626      2.11301130783783     -4.34860588886133
  C          -0.06598631556415      2.56076826630050     -6.30493577479284
  H          -0.28531916847529      3.58184536344269     -6.60663441934460
  H           0.80451497299619      2.20205538932657     -6.84560567419989
  H          -0.92382252934108      1.93766482824391     -6.54511615007088
