47
Coordinates from ORCA-job /home/esp/scriptDevelopment/drFrankenstein/11_PCY_CHARMM/04_torsion_scanning/torsion_NH1-CT1-CG321-CG2R61/scans_PCY_conformer_34/PCY_conformer_34_forwards/orca_scan E -79.896374758800
  H          -2.94978044464865     -2.91919155081380      2.31733228915511
  H          -0.15251156486853     -4.07441362925926      0.96418241693735
  H          -3.26154938707417      1.32147966307059      1.41152066898817
  H           0.58171424807680      3.36108520533270     -1.10194704840973
  H          -2.19748546312952     -2.92009730537055      0.69986496937232
  H          -2.21086241924182      3.04683936289020     -0.00808207893750
  H          -0.48779671462457     -1.56818064594556     -0.07131844270614
  H           0.47770214943463      2.25213557254554     -2.47620539664227
  H           2.77518652927514     -2.69116697581386      3.75126027845203
  H           0.53160824232731      0.12781148435810     -1.47892490285167
  H           1.09710082558453     -1.13668496193181      4.71645814829821
  H          -2.73908878616831      3.78894129646449     -3.48644447028046
  H           2.11506193166832     -4.19300181721296      1.90015542466351
  N          -2.04682580979945      3.08363747593350     -3.21501727792586
  C          -1.12303124659723      3.62312619374280     -2.36912724510136
  C          -1.37662934963324      5.02985815520002     -2.12071306122874
  C          -0.10367598601682      2.76824830226401     -1.70687308350050
  O          -2.32101364638482      5.59721161862782     -2.71405182882041
  C          -0.75651926458168      1.70877200874420     -0.84301604470270
  C          -1.83201521641175      2.03524284463980     -0.02310097141784
  C          -2.42783104811461      1.07942987018183      0.77093832602391
  C          -1.95753964754643     -0.23332858369349      0.76468563652788
  C          -0.87951430247178     -0.56522512147023     -0.04515245935587
  C          -0.29307171674638      0.40398378310686     -0.84117901067163
  O          -2.62864327238460     -1.09760723507898      1.58826787472096
  C          -2.19224499653696     -2.44355466507372      1.68648442308390
  C          -0.83067538077268     -2.57699511133198      2.32193584894602
  C           0.11867596413859     -3.44464213065810      1.79746132587184
  C           1.39972782682425     -3.50428122540549      2.31980601912268
  C           1.77177529493758     -2.66517396117891      3.35958861706763
  C           0.84587730059731     -1.79410277475130      3.89864903353706
  C          -0.45431952675932     -1.77484494823881      3.40171898855291
  N          -1.39065895758054     -0.92027977826250      4.06141716099062
  O          -2.50335850923662     -1.35425237482773      4.31362314237713
  O          -1.00710171611546      0.19273518292708      4.39460189949655
  C          -0.75156436919802      7.08834461098004     -0.94519099619762
  N          -0.57396520481565      5.69297581864523     -1.26139051815714
  H           0.15148370341760      5.19852407477541     -0.76886083789618
  H          -1.57520074495115      7.46549094540049     -1.54903060290638
  H          -0.99076703299034      7.21375726960495      0.11150295639070
  H           0.15521634021324      7.64655145785972     -1.17818524285019
  C          -2.11067302165909      1.84808378883201     -3.79916392112603
  O          -1.26398177105620      0.98106242405786     -3.63362739073928
  C          -3.32697222900011      1.67815482551847     -4.66682853742257
  H          -3.33081196172934      2.42452882108071     -5.45714087371528
  H          -3.31797414795871      0.68529890941808     -5.10594184877105
  H          -4.22647549969071      1.80171383011650     -4.06891135624196
