47
Coordinates from ORCA-job /home/esp/scriptDevelopment/drFrankenstein/11_PCY_CHARMM/04_torsion_scanning/torsion_NH1-CT1-CG321-CG2R61/scans_PCY_conformer_34/PCY_conformer_34_forwards/orca_scan E -79.895110004870
  H          -2.17530038520799     -0.18169767859163      4.71436557425070
  H          -3.14468307245747     -2.67428653592861      2.72942140548563
  H          -0.03926911060573      2.68709648139717      2.25002678532166
  H           0.64908825289413      1.97233072256484     -2.43114380009453
  H          -3.10472414795459     -0.37073270851533      3.20375814020227
  H           0.39284506235710      3.21035847817425     -0.12765324340549
  H          -2.30480200166816     -0.73624409260973      1.07125949328135
  H          -0.68099330232002      0.96420979447255     -2.92431702743808
  H           0.48327563431702     -4.89681698282057      2.34767039549076
  H          -1.88845642765434     -0.21371548141026     -1.26394320172024
  H           1.74384885282395     -2.96198519199868      3.25828981994705
  H          -1.23498293270425      4.25915681475570     -4.46248329797875
  H          -1.97718568134702     -4.75098772061186      2.13614317014335
  N          -0.68320191240643      3.44507644399259     -4.16783896186983
  C          -1.08845251308538      3.02699928601629     -2.93376381399479
  C          -2.20612624822765      3.82644404492196     -2.45784503184980
  C          -0.43232100290057      1.84069696111490     -2.31317407709757
  O          -2.56088008364563      4.82437002888231     -3.12498827435576
  C          -0.73622083338204      1.54572658314623     -0.87161021154895
  C          -0.20796463337876      2.35365165027635      0.13614804320606
  C          -0.44597504327593      2.07194158239582      1.46295988335698
  C          -1.21192494276913      0.96090211358904      1.82360774616659
  C          -1.72746251166387      0.13965977376032      0.82897230951180
  C          -1.48503185027308      0.43668172130426     -0.50307911902996
  O          -1.38358648968390      0.78425746392418      3.16695168274384
  C          -2.09819926771048     -0.34834291959923      3.63563810384292
  C          -1.38499919804932     -1.64918614230806      3.36183975015800
  C          -2.07546019395644     -2.74404387431534      2.85822452619692
  C          -1.41590616074129     -3.91270133981492      2.51613638560648
  C          -0.03681926440560     -3.99846064608293      2.63647596503569
  C           0.67232057545877     -2.92491540752283      3.13693765395769
  C          -0.00193348669240     -1.76971897162110      3.52501971577868
  N           0.77771641774317     -0.73311433174561      4.12068997383935
  O           0.32768925754798     -0.13926805915686      5.09007013499851
  O           1.89459635431406     -0.52391636527266      3.66044255362751
  C          -3.93865238385619      4.21234384112071     -0.77041958529355
  N          -2.85365879664760      3.45157621052594     -1.33798541666211
  H          -2.51881989914690      2.65009830860469     -0.82482606423937
  H          -4.14641446802036      5.04966651777246     -1.43426302215710
  H          -4.82758291371689      3.58848536359923     -0.68084312809318
  H          -3.66234727481246      4.58885330227855      0.21526321661535
  C           0.32279503604617      3.01045725393141     -4.98537755534571
  O           1.05312645447176      2.06489560708287     -4.71301288244092
  C           0.42899323023978      3.81054531168978     -6.25332244748451
  H           0.63709229676529      4.85171303789739     -6.01979143926552
  H           1.23228884399061      3.40964756367405     -6.86385135007574
  H          -0.50633783460186      3.76029218706037     -6.80474947732358
