47
Coordinates from ORCA-job /home/esp/scriptDevelopment/drFrankenstein/11_PCY_CHARMM/04_torsion_scanning/torsion_NH1-CT1-CG321-CG2R61/scans_PCY_conformer_34/PCY_conformer_34_forwards/orca_scan E -79.892456806200
  H          -2.65513892106444     -3.47063791683789      1.56877299274006
  H           0.52252164702026     -3.92562623246075      0.73013700772495
  H          -3.60662488346740      0.74005651218889      1.05259215328691
  H          -0.02962353205417      3.79043523199958     -0.37772240785362
  H          -1.61705416661195     -3.10427227819410      0.16460745647346
  H          -2.66917731904379      2.79195839528746      0.04910114913261
  H          -0.07518913394888     -1.39397463480918     -0.04683201438788
  H           0.65131309113668      2.84325742976418     -1.70957046497591
  H           2.53391680005241     -2.52326864884896      4.22894073684447
  H           0.83267309583228      0.61627049268846     -1.05386024558121
  H           0.43032982310265     -1.44155464867286      4.98326116764107
  H          -2.90220031879465      3.92526684777750     -3.11204391000035
  H           2.54726236468809     -3.80893449098718      2.11559818471170
  N          -2.26255521555131      3.21114866235876     -2.74778511030029
  C          -1.19806196951451      3.80643661258372     -2.13540401783871
  C          -1.20055618811174      5.24584645492117     -2.33386455005152
  C          -0.27908996486226      3.10506530600287     -1.19281204274263
  O          -2.12886476798800      5.78073126323430     -2.97864671411932
  C          -0.85207589620826      1.84837137327028     -0.59039767505878
  C          -2.10284741125870      1.87258112893998      0.01928904816459
  C          -2.63522520328921      0.73386852022227      0.58282017864468
  C          -1.92016859448740     -0.46292083283847      0.55911029479769
  C          -0.65998308299894     -0.48986689977765     -0.02197309821560
  C          -0.14017943826506      0.66058652426907     -0.58946799643736
  O          -2.55216152914078     -1.53210917878227      1.13782836615781
  C          -1.89477747232415     -2.78807849248495      1.17630207569623
  C          -0.68262055386480     -2.79169668324904      2.07420501292357
  C           0.50064552838834     -3.39697700103610      1.67069782168635
  C           1.64426551276841     -3.32278372050187      2.44792659899771
  C           1.63883349914022     -2.60495559309676      3.63475420212484
  C           0.47444953944756     -1.99611019461038      4.05874985301063
  C          -0.68502232470192     -2.11701150936006      3.29750285568266
  N          -1.87884263644777     -1.54608975297702      3.83586351659900
  O          -2.91646076842735     -2.18622753927931      3.77149012661049
  O          -1.78878181041506     -0.45909719201275      4.39114232890589
  C          -0.05965506269779      7.38945073942005     -1.99363310248046
  N          -0.17624548454360      5.96195160849866     -1.82285400806735
  H           0.58881240522030      5.48770445698205     -1.37239715281046
  H          -0.94305515158010      7.73518570414503     -2.52763793243297
  H          -0.00605730126221      7.88260765005552     -1.02300310433264
  H           0.83106358221440      7.63505512752405     -2.57268331410025
  C          -2.44381124008822      1.91933501023210     -3.17083863461447
  O          -1.58052846060098      1.06006558802108     -3.08073408065328
  C          -3.80579542579865      1.68875764592251     -3.76356122952163
  H          -3.96460550754717      2.34956828112678     -4.61193084399950
  H          -3.88495283465735      0.65597540707741     -4.08827052523305
  H          -4.56909731739294      1.89265546630381     -3.01673895274798
