47
Coordinates from ORCA-job /home/esp/scriptDevelopment/drFrankenstein/11_PCY_CHARMM/04_torsion_scanning/torsion_NH1-CT1-CG321-CG2R61/scans_PCY_conformer_34/PCY_conformer_34_forwards/orca_scan E -79.891256942290
  H          -2.56840960498811     -3.54974003874586      1.45817600634390
  H           0.64496914728530     -3.87088801652220      0.69698991085984
  H          -3.65902306498887      0.63424760897622      1.02015207813089
  H          -0.25435621618650      3.88093864653059     -0.23898460695825
  H          -1.50758697935588     -3.10983760538460      0.09244159079495
  H          -2.77019395877163      2.74506662540015      0.09491230909046
  H          -0.02389085052541     -1.34149077543428     -0.03491739902307
  H           0.63338520604481      2.98630867660144     -1.48130940071016
  H           2.50918760888416     -2.49045361900561      4.28495569790613
  H           0.83697296289993      0.72564775722261     -0.96547748643971
  H           0.34878741682534     -1.50236527626463      5.00645758648854
  H          -2.90279429405046      3.96264198943841     -3.11427576158868
  H           2.62596784682301     -3.71919103465468      2.14119519282991
  N          -2.30371920456070      3.24092141397904     -2.69830085178335
  C          -1.22012167776358      3.82444797008368     -2.10754499738387
  C          -1.14803413423287      5.24558784144834     -2.40404310545933
  C          -0.36437974587222      3.17595314025244     -1.06975498058814
  O          -2.02376751450700      5.77498169509253     -3.12253889740696
  C          -0.90368046613995      1.88383998215360     -0.51785083833509
  C          -2.17027470467105      1.84754147970602      0.05843853110116
  C          -2.67567482999503      0.67638159301075      0.57774458118570
  C          -1.91646744671523     -0.49273317495712      0.54362655042146
  C          -0.64148345763707     -0.45968788748643     -0.00329675581415
  C          -0.14907794515425      0.72312280538355     -0.52725439769947
  O          -2.52354513805029     -1.59785683085955      1.08005475691212
  C          -1.82303596414304     -2.83064414708261      1.10394605950898
  C          -0.63588609210560     -2.81508873497708      2.03462421660913
  C           0.57878612606592     -3.36775668786471      1.64941218279931
  C           1.69748857644518     -3.27372654052311      2.46005526378334
  C           1.63410053604237     -2.58777207626044      3.66393954944626
  C           0.43769244767325     -2.03103990599927      4.07006812995345
  C          -0.69556343819146     -2.17262790785748      3.27370527471090
  N          -1.92317517661233     -1.65756377273288      3.79195784967084
  O          -2.93517699309653     -2.33165047420442      3.68282866976509
  O          -1.88693879090529     -0.58288206527909      4.37645924395117
  C           0.07957442298382      7.35437121268011     -2.15731746138027
  N          -0.11444905689858      5.94943811483032     -1.89438386643328
  H           0.60686378803809      5.47294631714042     -1.37892222682772
  H          -0.76461321275985      7.70319782272167     -2.74950584540608
  H           0.12091816994550      7.91048943202703     -1.22077516045174
  H           1.00262909092078      7.51713137993928     -2.71466662316857
  C          -2.52746544345737      1.94297324579653     -3.08487456621448
  O          -1.69281486215792      1.05870605162283     -2.97534707451919
  C          -3.89877867915997      1.74087166813926     -3.66649627473505
  H          -4.03672244519663      2.37693212645782     -4.53715360544028
  H          -4.01509612999932      0.70092542208110     -3.95520218476437
  H          -4.65212582802739      1.99738455338032     -2.92591686373212
