47
Coordinates from ORCA-job /home/esp/scriptDevelopment/drFrankenstein/11_PCY_CHARMM/04_torsion_scanning/torsion_NH1-CT1-CG321-CG2R61/scans_PCY_conformer_34/PCY_conformer_34_forwards/orca_scan E -79.895718243730
  H          -1.79578903506390     -3.69004045422534      1.30610398744276
  H           1.18080209148808     -2.86367141181352      0.07128094343288
  H          -4.14615326308907     -0.05026337653605      1.65287890446124
  H          -3.16907821785964      4.02104973857194     -0.36302771557512
  H          -1.17051650211482     -2.80643455275583     -0.11148078685236
  H          -4.11388305186893      2.31258122511518      0.93958702473334
  H          -0.34571957738760     -0.65350177025574     -0.20017465359377
  H          -1.50520249465889      4.17382987849305      0.21512866758357
  H           3.13639734253853     -1.33998980489270      3.55057193425142
  H          -0.31600176371488      1.67357878169962     -0.89697014818016
  H           0.94114470501931     -1.19780543259055      4.70091490226548
  H          -1.92230339220046      3.22590309310287     -3.76411060091964
  H           3.24228260311386     -2.22509965690302      1.24289137985141
  N          -2.43216011555855      3.15587409106970     -2.87741665556937
  C          -1.71921192701889      3.73794650456075     -1.87112896026024
  C          -0.47191138424282      4.30352064626235     -2.35233338060549
  C          -2.15737627580836      3.61589798482972     -0.45601155826844
  O          -0.20957608526673      4.25798972622299     -3.57474979495463
  C          -2.20662207682139      2.16417698459319     -0.02568309254105
  C          -3.28474791671914      1.66733298450438      0.69615622228140
  C          -3.31452326184246      0.34764685162144      1.09248954797267
  C          -2.26334047860255     -0.51163333637743      0.77348076559174
  C          -1.17961010492486     -0.02191967188666      0.05646075694612
  C          -1.16261055428274      1.30589394757400     -0.33574540225249
  O          -2.40719814792022     -1.80000402752218      1.21388490431960
  C          -1.37467525175540     -2.73997619948838      0.96288466161375
  C          -0.10465191119152     -2.43371399131854      1.71714544245194
  C           1.13253240149412     -2.51315445708561      1.09081691527193
  C           2.29388700565278     -2.14501676766049      1.74919054564179
  C           2.23780110445835     -1.65107167571712      3.04397218114221
  C           1.02010874250058     -1.56411098099943      3.68908996648104
  C          -0.13794052360839     -1.98192034816529      3.03882213713182
  N          -1.35196593280624     -1.95426592519883      3.79170036673538
  O          -2.11661849284536     -2.90229106998160      3.70787839296222
  O          -1.53774362426390     -0.99938537776486      4.53435265655776
  C           1.62495103930333      5.46833251336852     -1.84568983784430
  N           0.37246744437511      4.86570056743856     -1.46231919330749
  H           0.13233918866342      4.88403484768257     -0.48491530646321
  H           1.74265040750100      5.33949592742508     -2.92026926258562
  H           1.62496064295276      6.53261242229958     -1.60789273312666
  H           2.45205661938985      4.98317098428491     -1.32744556482027
  C          -3.70249514724335      2.64738079214267     -2.89342030339244
  O          -4.44008643528713      2.64989783981353     -1.91741093420610
  C          -4.09087978057300      2.09592051118022     -4.23722348341076
  H          -3.40230124637150      1.30607288896507     -4.52596193418807
  H          -5.09884155184451      1.69628459172523     -4.18207944060532
  H          -4.05364581369383      2.88114396459203     -4.98819246360033
