47
Coordinates from ORCA-job /home/esp/scriptDevelopment/drFrankenstein/11_PCY_CHARMM/04_torsion_scanning/torsion_NH1-CT1-CG321-CG2R61/scans_PCY_conformer_34/PCY_conformer_34_forwards/orca_scan E -79.892913824270
  H          -2.35096655153439     -3.59767142915985      1.45129205206158
  H           0.56975153088367     -3.25437433225441     -0.09960413982661
  H          -4.05218745210419      0.36612782172421      1.99651009200630
  H          -2.66292126278711      4.25000971977901     -0.13405316220646
  H          -1.75194488996711     -2.81595175722516     -0.03582178761927
  H          -3.73798247931216      2.69088238802730      1.23734292702412
  H          -0.60976217751635     -0.82068520867945     -0.23438610262112
  H          -0.93080062249157      4.08100428363926      0.19172145596612
  H           3.09843055284866     -2.05545253182823      3.12844390845204
  H          -0.29414188983751      1.47273473279035     -0.96824737536711
  H           1.08735761551149     -1.56496633622734      4.49905123255486
  H          -1.46866991607910      3.03476248848213     -3.65583751477159
  H           2.81873457564184     -2.94973699603789      0.83945936296691
  N          -1.96916730619878      2.92865467415791     -2.76730186320719
  C          -1.47341298405698      3.79509761344363     -1.83688627284070
  C          -0.49792302913599      4.70399507893294     -2.41207707737538
  C          -1.76550254847107      3.67135748762250     -0.38119673025105
  O          -0.18807492000140      4.59386151382002     -3.61860336923573
  C          -1.99594747309899      2.24905169518293      0.06846450142129
  C          -3.04818903034331      1.92587555634295      0.91672114661571
  C          -3.23603057486015      0.62896951573611      1.34170254324400
  C          -2.37173807568645     -0.38330900300363      0.92683108377319
  C          -1.30723249454115     -0.06801604977133      0.09335097757946
  C          -1.12889495842899      1.24027764939730     -0.32325060723500
  O          -2.66467257053133     -1.63444096133138      1.40247866431210
  C          -1.82584573184299     -2.72370386401809      1.05338807642237
  C          -0.44981008384816     -2.62412388036112      1.66363393548923
  C           0.68581398197252     -2.89970802417721      0.91296984710131
  C           1.95363792240015     -2.71954536635411      1.44011578232731
  C           2.11343174840852     -2.22103958207011      2.72441650630055
  C           0.99992169617546     -1.94103676474392      3.49155378884845
  C          -0.27132705405793     -2.17167642972523      2.97319549099355
  N          -1.38026414370098     -1.95319742785411      3.84759386808088
  O          -2.28121165133285     -2.77671063922220      3.86849420979509
  O          -1.34157601655526     -0.97421730265746      4.58064348967234
  C           0.98250599865530      6.63313066445210     -2.10524766537949
  N           0.04320456604920      5.65298402715023     -1.61760763636098
  H          -0.30094453744367      5.77430599060216     -0.67935430465652
  H           1.22434301579966      6.38015525138721     -3.13603966317806
  H           0.54853547853622      7.63329304027226     -2.07301934214871
  H           1.89004993984937      6.61453052548463     -1.50231183204448
  C          -3.12045238944033      2.18472472945246     -2.75992673550758
  O          -3.93884008309839      2.23309094993109     -1.85386461002752
  C          -3.26579816956388      1.32566962463804     -3.98483737598959
  H          -2.39725178629034      0.68152289245898     -4.09149010245341
  H          -4.16192530326307      0.71998725523923     -3.89187904392861
  H          -3.34530846531007      1.95150671655528     -4.87050062877649
