47
Coordinates from ORCA-job /home/esp/scriptDevelopment/drFrankenstein/11_PCY_CHARMM/04_torsion_scanning/torsion_NH1-CT1-CG321-CG2R61/scans_PCY_conformer_34/PCY_conformer_34_forwards/orca_scan E -79.895608854170
  H          -2.86779532308641     -3.12817271686167      2.08045755212177
  H           0.10372821247822     -4.04843199597606      0.92067457992988
  H          -3.40037362977901      1.10137139090952      1.22288303902397
  H           0.50238585021417      3.40787268509177     -0.95334686299654
  H          -1.99696630655921     -3.04362076462694      0.52572913124605
  H          -2.36586733885130      2.92342925323544     -0.08220258656129
  H          -0.33567711450245     -1.56515874572056     -0.09513627444601
  H           0.52077740627042      2.35899138819509     -2.37864788761023
  H           2.70436245219023     -2.52704973734122      3.94946407845443
  H           0.66571720929059      0.22318201211995     -1.39547552078782
  H           0.84733275922981     -1.12607917413785      4.81630737455368
  H          -2.81749743055624      3.83879178807729     -3.31571795686048
  H           2.29786142414097     -4.02495783140891      2.02343281541617
  N          -2.12571511701300      3.12732222278857     -3.06027079493990
  C          -1.13319343244313      3.67585523473335     -2.30186428239538
  C          -1.31024427363174      5.10685808355665     -2.13747434957857
  C          -0.12439960754698      2.81997429305657     -1.62372517951218
  O          -2.28856484341444      5.66979652657947     -2.67762115408969
  C          -0.77164470644810      1.70157806363299     -0.83559597280139
  C          -1.92161331139696      1.93860144643125     -0.08989954631962
  C          -2.50799010690503      0.92835726839052      0.64160384826785
  C          -1.95100131177060     -0.34965836547619      0.64904817762738
  C          -0.79589921689072     -0.59149939769140     -0.08270535008311
  C          -0.22098764298544      0.43088366286564     -0.81761238626193
  O          -2.62031448221439     -1.27391326661946      1.40687867069098
  C          -2.09986071190838     -2.58875240387733      1.51717414073263
  C          -0.78404014337115     -2.64049116318326      2.25308974393864
  C           0.26404627009599     -3.42241754162296      1.78493924421874
  C           1.50372261461533     -3.40169121848801      2.40161633869663
  C           1.73364386548502     -2.56476100619796      3.48344183143268
  C           0.70744686964408     -1.77849530774714      3.96841812088503
  C          -0.55033235853208     -1.84155782063657      3.37501865487775
  N          -1.59433845830151     -1.07620228715739      3.97999878842373
  O          -2.68959454580009     -1.59413060390344      4.13035465376832
  O          -1.31913363490799      0.04966699392783      4.37274329583542
  C          -0.49914857498174      7.21654989117170     -1.18775589354736
  N          -0.40013545311382      5.79662922967326     -1.41780183807088
  H           0.37611027546628      5.31549826542214     -0.99458552152664
  H          -1.37883017034886      7.58016839876516     -1.71605684208539
  H          -0.60568999345026      7.42323982003430     -0.12221974597363
  H           0.38769061616045      7.72433095878386     -1.56698405481912
  C          -2.24126416784576      1.87730988054220     -3.60554782470641
  O          -1.37723225202982      1.01857106243167     -3.50195901884401
  C          -3.53477104754496      1.68489488834277     -4.34744897499105
  H          -3.62008623190866      2.41414597184249     -5.14905819847745
  H          -3.56393321037525      0.68284774066625     -4.76408168483699
  H          -4.37168967486597      1.81832292740658     -3.66644837701852
