47
Coordinates from ORCA-job /home/esp/scriptDevelopment/drFrankenstein/11_PCY_CHARMM/04_torsion_scanning/torsion_NH1-CT1-CG321-CG2R61/scans_PCY_conformer_34/PCY_conformer_34_forwards/orca_scan E -79.897033049170
  H          -3.03308342277074     -2.64527135642876      2.60743574338574
  H          -0.49233899369300     -4.03951071777119      0.97675818027674
  H          -3.00976998171276      1.61044278365305      1.71441659481799
  H           0.61790598456473      3.36944423412408     -1.18840916227606
  H          -2.45223778793152     -2.72025499079491      0.92269538115817
  H          -1.95113722656066      3.22629280416947      0.18022671798643
  H          -0.73826882816243     -1.54258150820301     -0.05824404926261
  H           0.47795020967462      2.17653222758205     -2.48865329927413
  H           2.80707922618960     -2.93032777498841      3.45343224543297
  H           0.28919631055642      0.04820770395903     -1.57905033075676
  H           1.37269031837971     -1.24664009717797      4.58133067186653
  H          -2.64001708457214      3.69823723737868     -3.66873415131815
  H           1.83905812089027     -4.35656023569322      1.67971300731141
  N          -1.93076032662687      3.01802801085578     -3.37737182907645
  C          -1.11145380598434      3.56204199508314     -2.43357190145108
  C          -1.47773901116609      4.93127396379314     -2.12349446911571
  C          -0.08162711630370      2.74332511121197     -1.74149018110459
  O          -2.40149698292249      5.48127578925340     -2.76295449926592
  C          -0.74036419697466      1.75122553431884     -0.80314691360034
  C          -1.68062007818435      2.18226571805217      0.12792230592121
  C          -2.28167004733729      1.28780269859241      0.98657132230434
  C          -1.95569543991224     -0.06743269980661      0.93349717132113
  C          -1.01714260755500     -0.50445168511667      0.00827606277880
  C          -0.42313337656638      0.40435719790805     -0.85180337511480
  O          -2.61861569723440     -0.86269226880869      1.82942621269709
  C          -2.30274888593298     -2.24404413471558      1.89795450904155
  C          -0.90132630213257     -2.50004933171454      2.39418692660538
  C          -0.08669230908362     -3.44087761217407      1.77776747164806
  C           1.23062371123255     -3.61298837766617      2.16863476026403
  C           1.77526455937952     -2.81645045810472      3.16486869953235
  C           0.98561602790632     -1.87430731311179      3.79368357394051
  C          -0.35153782338429     -1.74095761515102      3.43016699771634
  N          -1.14029115357835     -0.81486191427412      4.17970114340908
  O          -2.26029419394196     -1.14903109362626      4.53215749886803
  O          -0.62745601658238      0.25420753478432      4.48166167580405
  C          -1.09473901526034      6.93104275977506     -0.75686973199612
  N          -0.79739795115705      5.57700032769722     -1.15228104433908
  H          -0.09112869504781      5.08827802399079     -0.62681407983146
  H          -1.89171340395721      7.29968975396861     -1.40043451819130
  H          -1.42486197493622      6.96176088004639      0.28225921033069
  H          -0.21286516747123      7.56113023626595     -0.87338120563726
  C          -1.88608629770238      1.81068839921399     -4.01982591405293
  O          -1.02651434502562      0.96591461348799     -3.80979924672328
  C          -3.00300913324260      1.63981704683643     -5.01187303507954
  H          -2.95234448442134      2.41773550915873     -5.76959887387995
  H          -2.91613714193521      0.66689728246361     -5.48569519758046
  H          -3.96206816180944      1.71237580770331     -4.50521707549047
