47
Coordinates from ORCA-job /home/esp/scriptDevelopment/drFrankenstein/11_PCY_CHARMM/04_torsion_scanning/torsion_NH1-CT1-CG321-CG2R61/scans_PCY_conformer_34/PCY_conformer_34_forwards/orca_scan E -79.897232698080
  H          -1.87620245979701     -0.02179580720563      4.78723131175191
  H          -3.09807012734497     -2.59765544549690      3.08320984036140
  H           0.01883119964528      2.67754006784779      1.95971221340181
  H           0.18675391021041      1.38334211483035     -2.77923001722242
  H          -2.96709050426087     -0.26633324574106      3.39744203577039
  H           0.21182175057575      3.06056744341532     -0.47568854262368
  H          -2.39073487010608     -0.76902913601252      1.21275030999675
  H          -1.46720183678002      0.86645015597542     -3.02520825845032
  H           0.42946452051930     -4.91075087475568      2.40817660848181
  H          -2.20805473056300     -0.38437604607965     -1.17738860676004
  H           1.81504617473378     -2.94968643125946      3.03731412013517
  H          -0.97433559743818      4.43197589150970     -4.24999048387531
  H          -2.03633686300013     -4.72924755894558      2.48382155636856
  N          -0.57458510767198      3.50765492979359     -4.05198775723029
  C          -1.18492686035169      2.96077661073389     -2.96271993279770
  C          -2.24838777385145      3.81849824029793     -2.46511426271740
  C          -0.84633330879885      1.59198874396860     -2.48550404671279
  O          -2.39386569598920      4.95915715756278     -2.95716953496472
  C          -1.00088148816585      1.37418286201440     -1.00442491215935
  C          -0.36697493520197      2.22897452131816     -0.10328354767422
  C          -0.47083079622163      2.02481826487918      1.25418612704768
  C          -1.20700220884772      0.94780988855556      1.75282456593417
  C          -1.82944295713977      0.08119811725614      0.86412828371946
  C          -1.72158826338015      0.30118359718583     -0.50019732732486
  O          -1.24253976614932      0.84847798559417      3.11537884881484
  C          -1.91929202064212     -0.24397758428180      3.71655044796417
  C          -1.26193394819347     -1.57264009382896      3.43692076652839
  C          -2.02219685518692     -2.68141336672410      3.08773381641807
  C          -1.42307737553761     -3.88098810283639      2.74176411740027
  C          -0.04072507587378     -3.98665771471921      2.70121355338399
  C           0.73727772364674     -2.89896032867483      3.04465332653769
  C           0.12857139160072     -1.71046133656117      3.43920450275114
  N           0.98642217413245     -0.65360430519233      3.87159935257501
  O           0.67727363221616     -0.01568826119302      4.86659540677191
  O           2.02680974411803     -0.47493139847821      3.25036498938583
  C          -4.11952048312980      4.12192154427529     -0.91353231249826
  N          -3.07964516691319      3.33088307340332     -1.52271890818631
  H          -2.88338193717838      2.42621248934459     -1.12133173095104
  H          -4.17523302722002      5.07024793131785     -1.44511218489849
  H          -5.07482317433042      3.60389288625757     -0.98878546782000
  H          -3.89165256004132      4.30884206065760      0.13711071289438
  C           0.48168216789876      3.08692647464896     -4.81189280366173
  O           1.06019713509422      2.02012832548370     -4.63576909874521
  C           0.84946446168195      4.06562021750248     -5.89136061713729
  H           1.13350637378813      5.01805280756366     -5.45077120205751
  H           1.68237070429696      3.66996255808601     -6.46454411303121
  H           0.00037471114828      4.22891007670666     -6.55013114489456
