47
Coordinates from ORCA-job /home/esp/scriptDevelopment/drFrankenstein/11_PCY_CHARMM/04_torsion_scanning/torsion_NH1-CT1-CG321-CG2R61/scans_PCY_conformer_34/PCY_conformer_34_forwards/orca_scan E -79.894668102610
  H          -2.81344351366178     -3.25883556676406      1.88618940665496
  H           0.24199306394870     -4.02286585275763      0.84317893841667
  H          -3.47710776120351      0.97491352501485      1.15526279938909
  H           0.35868275069060      3.54617354742866     -0.74267714825756
  H          -1.87040658563467     -3.07709292411542      0.38269055068442
  H          -2.46193195698225      2.88159412590483     -0.04095097847217
  H          -0.23605328914644     -1.51252908699502     -0.08805134368754
  H           0.59322711045583      2.52360412272920     -2.17003445421591
  H           2.63321706679637     -2.54211797327397      4.05895180338110
  H           0.74579991923392      0.35678698573013     -1.28310706508814
  H           0.68552415106037     -1.24438442287340      4.88664408414685
  H          -2.86175050751311      3.85374013770806     -3.20493900041322
  H           2.37702910484066     -3.97052137090415      2.05567171054186
  N          -2.17024841401193      3.14995103861076     -2.92767519572524
  C          -1.15029838394842      3.73087383668015     -2.23226432249181
  C          -1.28483331240695      5.17583642785352     -2.18775054583489
  C          -0.15459147823300      2.92319787180091     -1.47633858954841
  O          -2.27345734060236      5.71835832279906     -2.72935118806112
  C          -0.78442620098523      1.75283271260264     -0.75669959967891
  C          -1.97659617814150      1.91655121227305     -0.05860218785167
  C          -2.55169519708622      0.85939556993568      0.61260780208781
  C          -1.94002279682567     -0.39354648241118      0.60761998923966
  C          -0.74035772730038     -0.56101611948698     -0.07082073293156
  C          -0.17706705591965      0.50823590294151     -0.74562735746828
  O          -2.60472802378933     -1.37031729662047      1.30094787965848
  C          -2.03987317559345     -2.66848489222939      1.38513822788345
  C          -0.76126829141143     -2.70426235991385      2.18482690498305
  C           0.33670694358343     -3.42887644184184      1.73915682797151
  C           1.54299620599290     -3.39157705416289      2.41807896649550
  C           1.68863786364953     -2.59368901245804      3.54320573831866
  C           0.61161421388986     -1.86494154173927      4.00708282692648
  C          -0.61263243077333     -1.94621172980720      3.34893899216515
  N          -1.71201416559118     -1.24422506147819      3.93186477364714
  O          -2.79641923555293     -1.80141583425288      3.99665299849016
  O          -1.49535054010611     -0.13153596820697      4.39337032216166
  C          -0.35404179649147      7.33628976222805     -1.49808158228856
  N          -0.32435812435061      5.89632200982047     -1.57064279655696
  H           0.48943663096521      5.43388889962071     -1.20016954249093
  H          -1.27357395827292      7.67586754288707     -1.97166807570439
  H          -0.33980884864865      7.66242070990244     -0.45793267964777
  H           0.50136726754097      7.76354279775223     -2.02213783159286
  C          -2.29154255114478      1.88357340919568     -3.43399870715730
  O          -1.40669443844167      1.04438968319649     -3.35160305381474
  C          -3.61651731545279      1.64962175423022     -4.10441807761782
  H          -3.75893655417781      2.35987479383905     -4.91487455225227
  H          -3.64567254629028      0.63852571386622     -4.49848109333744
  H          -4.41951259695646      1.78008457574117     -3.38315384105607
