47
Coordinates from ORCA-job /home/esp/scriptDevelopment/drFrankenstein/11_PCY_CHARMM/04_torsion_scanning/torsion_NH1-CT1-CG321-CG2R61/scans_PCY_conformer_34/PCY_conformer_34_forwards/orca_scan E -79.899008618740
  H          -0.49778588319820     -0.68669619232003      4.69394085045909
  H          -0.83346880822084     -3.42915713296057      3.07706538637540
  H          -1.75056980720170      2.73603247469171      2.45482331530277
  H          -2.84208617898490      0.74600421699938     -2.51225930670296
  H          -1.85536676819360     -1.55837481719795      3.93714808706309
  H          -2.36935606534941      3.33526281281490      0.14147728668960
  H          -2.37627942180841     -1.38779132756301      1.54229917243868
  H          -3.96966966601172      2.02645598106862     -2.04130896119466
  H           2.01328254032545     -3.10930696034822     -0.08946577115504
  H          -2.95724857685179     -0.79911094223387     -0.74555630673490
  H           2.18055768772253     -0.67267932683294      0.33829606895968
  H          -0.07331483057721      3.21224306178029     -2.59969632442303
  H           0.53471922415206     -4.48898460765416      1.34036963992272
  N          -0.61916630220689      2.37533644319777     -2.37299488547601
  C          -1.95142203467758      2.65813291025479     -2.38680933063441
  C          -2.20682006246020      4.03757806123122     -2.76396716172431
  C          -2.95080251687313      1.65981511209036     -1.92224036030061
  O          -1.24668138168541      4.77663973194653     -3.07352007454426
  C          -2.68801062335638      1.30434795499811     -0.47414206740349
  C          -2.37548738807842      2.29892468601194      0.44641862775472
  C          -2.02997548519062      1.97624541426026      1.74118013068220
  C          -1.98715787419748      0.64229248853405      2.14288712659768
  C          -2.36672955329392     -0.35136341671063      1.24758056746209
  C          -2.70660767099261     -0.01473238690083     -0.04949251348731
  O          -1.54837813378412      0.41789966548191      3.42051057899885
  C          -1.02922154520298     -0.86034309634751      3.75219619754904
  C          -0.09202776154623     -1.46131784596122      2.73362363823351
  C          -0.15822857632747     -2.82835552360307      2.48748659285540
  C           0.60556968802552     -3.42519002003091      1.50002442216509
  C           1.43751470384454     -2.65560186480835      0.69985747110187
  C           1.52918090109178     -1.29928603688332      0.92635312242925
  C           0.79421777960905     -0.70826201702739      1.95394398774450
  N           1.02217813685160      0.67758117864479      2.18284946402817
  O           0.97976136689947      1.10661726559128      3.32813989968718
  O           1.30754715480228      1.38127203614568      1.21671592043173
  C          -3.83430564536125      5.83258261280058     -3.13336939981114
  N          -3.48175936889303      4.47932356960175     -2.78167513641418
  H          -4.22850078887348      3.87204704894696     -2.48637356585167
  H          -2.92107562333112      6.35314830871931     -3.41664979101885
  H          -4.52947226249628      5.83449152899460     -3.97278277127316
  H          -4.29174398859203      6.34213819797977     -2.28453255091860
  C           0.05042563645440      1.20080594107704     -2.15198119525088
  O          -0.51378404433761      0.13009256804991     -1.97881012248567
  C           1.54235312145041      1.36946600840166     -2.13251873316870
  H           1.82455616152367      1.71423394488550     -1.13728319931867
  H           2.01609627752161      0.40981208858537     -2.31628577586988
  H           1.87354425788167      2.09773020159794     -2.86544224976989
