47
Coordinates from ORCA-job /home/esp/scriptDevelopment/drFrankenstein/11_PCY_CHARMM/04_torsion_scanning/torsion_NH1-CT1-CG321-CG2R61/scans_PCY_conformer_34/PCY_conformer_34_forwards/orca_scan E -79.889975141360
  H          -2.48002261202903     -3.61105414378271      1.35516261322083
  H           0.76362268242630     -3.79156587415335      0.65402931417269
  H          -3.70211786108419      0.54769811920511      1.02247999999281
  H          -0.49835080558873      3.96989374414070     -0.12839851474336
  H          -1.40768932865285     -3.08913832246142      0.02821054433258
  H          -2.87167633125961      2.70897483184504      0.16107942394814
  H           0.01622833093825     -1.27672348452403     -0.01526253211252
  H           0.58181659851344      3.12948323992236     -1.25031460185581
  H           2.49444584908517     -2.47294029042880      4.33110361262148
  H           0.82164795009525      0.84068658263870     -0.87983412662044
  H           0.28294290269493     -1.59184703439417      5.03623207956801
  H          -2.88276638180155      3.99384062135199     -3.15213293055230
  H           2.70513706391874     -3.61832540661767      2.14893575827044
  N          -2.33833226388725      3.26850876862150     -2.67099353927918
  C          -1.24032326193307      3.83495115701896     -2.08840841110238
  C          -1.08623541190005      5.22635962691052     -2.48140545703622
  C          -0.46573475366004      3.24797408676047     -0.95267963704554
  O          -1.89336212881742      5.73585412870592     -3.28932089169143
  C          -0.96630624973722      1.92689157277537     -0.43749749925896
  C          -2.24013031822460      1.83380392540717      0.11616272685255
  C          -2.71339326291995      0.63416457018652      0.59891510413438
  C          -1.91405293101249     -0.50726950662412      0.54913539784313
  C          -0.63183398140936     -0.41751889250984      0.02642090780828
  C          -0.17146289565020      0.79381660663840     -0.46011143729220
  O          -2.49170539372572     -1.64612726597169      1.04676682838647
  C          -1.75196935128782     -2.85618210152110      1.04193594194150
  C          -0.58533331578939     -2.83301401828854      1.99803069582959
  C           0.65746293409935     -3.32587127753590      1.62174787690109
  C           1.75355884069549     -3.21944599205402      2.46130604911428
  C           1.63759181273646     -2.58020003680426      3.68674948436581
  C           0.41229545374982     -2.08290402247062      4.08421008311761
  C          -0.69649740402465     -2.23801636751215      3.25690065756512
  N          -1.95486459305679     -1.78801713609578      3.76270290274557
  O          -2.93365252398247     -2.50317634735253      3.61911543339671
  O          -1.97602733976282     -0.72719132102830      4.37197250784517
  C           0.21456222237165      7.29801866617344     -2.30802553018101
  N          -0.05687223493834      5.92545804193322     -1.95715374594974
  H           0.60299247062433      5.46459439874692     -1.35300835844241
  H          -0.57445880544455      7.63378035499370     -2.97863001943075
  H           0.22085140115858      7.92112378292062     -1.41375094970289
  H           1.17716645349179      7.38242853574749     -2.81348605803126
  C          -2.61457351507405      1.96684899075511     -3.01214306624577
  O          -1.82479285973685      1.04928367986689     -2.85787921241177
  C          -3.98561257181803      1.80660955710233     -3.60790649068243
  H          -4.07449335324230      2.40132962507378     -4.51350957995210
  H          -4.15216607100587      0.76028982775902     -3.84440084821420
  H          -4.73651285414219      2.14186179892974     -2.89702250613943
