47
Coordinates from ORCA-job /home/esp/scriptDevelopment/drFrankenstein/11_PCY_CHARMM/04_torsion_scanning/torsion_NH1-CT1-CG321-CG2R61/scans_PCY_conformer_34/PCY_conformer_34_forwards/orca_scan E -79.894598320830
  H          -2.25513434305695     -0.24965908572001      4.67627977074912
  H          -3.18953488501542     -2.62450897129298      2.53949629978559
  H           0.01560774196485      2.70255442673692      2.44522111074087
  H           0.81692060597714      2.48072577550787     -2.19186501150208
  H          -3.12100940347486     -0.34832380029985      3.11986745364753
  H           0.54848580336587      3.33913271750280      0.11766393522093
  H          -2.22373559160137     -0.63819712518467      1.00817318296783
  H          -0.15293659800791      1.15731713026622     -2.76904409861109
  H           0.40076171011560     -4.91620580073929      2.21552561151233
  H          -1.70521087473701     -0.00560088866759     -1.28052509497490
  H           1.66321868299166     -3.05413227629231      3.26458101573587
  H          -1.43148697584596      4.02627183952132     -4.57240750085038
  H          -2.04411996596459     -4.70100080875390      1.90466220290784
  N          -0.74863001132943      3.35788670048285     -4.19577587268510
  C          -1.07156836143096      3.03596605602456     -2.90935318218627
  C          -2.27414508721805      3.73694996468284     -2.48984147702848
  C          -0.20150404440412      2.07460979118945     -2.17074996580120
  O          -2.82821225030011      4.51680722727748     -3.29773916865265
  C          -0.55995377070354      1.72247479275597     -0.75478988067973
  C          -0.06889247131903      2.47554265187625      0.31163470421913
  C          -0.36306447154832      2.13043530301189      1.61309258912093
  C          -1.15094207162741      1.01073859911622      1.88704280559435
  C          -1.63155142762267      0.24372022026131      0.83243956218344
  C          -1.33101498862492      0.60239544818095     -0.47138639990482
  O          -1.37812005507924      0.76960664290167      3.21168819432617
  C          -2.13411808514930     -0.36797383137198      3.59513591440057
  C          -1.43686791789514     -1.67103439092111      3.29225539877310
  C          -2.12882335991171     -2.72581496510471      2.71094692667740
  C          -1.48130749362183     -3.89413425161162      2.34556614728669
  C          -0.11114113997899     -4.01872985050562      2.52129005852109
  C           0.59918286582099     -2.98551038804967      3.09900482986770
  C          -0.06527359702936     -1.83203070074085      3.50873683615767
  N           0.71087329369040     -0.84169208870683      4.18273216792894
  O           0.23168650800813     -0.27819240301900      5.15621327972367
  O           1.85184079460277     -0.64131423153852      3.78135372097096
  C          -3.93902644863075      4.19983884699263     -0.75433725811458
  N          -2.76800877724851      3.52459731168989     -1.25512299002304
  H          -2.27502785119559      2.90401679251561     -0.63103854279964
  H          -4.32901916232568      4.83276588053639     -1.54953564063586
  H          -4.69556926077826      3.47156765064757     -0.46248807044408
  H          -3.68161222777423      4.81560328791769      0.10806605785355
  C           0.28538945401127      2.95826835551140     -4.99559710774254
  O           1.15252317086838      2.17120133030385     -4.63504033266832
  C           0.24093392426039      3.58471541267221     -6.36133199527299
  H           0.29822963011937      4.66696373566575     -6.27633550780806
  H           1.07965588517650      3.22324517374111     -6.94842882682822
  H          -0.68974710052206      3.32613679302979     -6.85990585165915
