47
Coordinates from ORCA-job /home/esp/scriptDevelopment/drFrankenstein/11_PCY_CHARMM/04_torsion_scanning/torsion_NH1-CT1-CG321-CG2R61/scans_PCY_conformer_34/PCY_conformer_34_forwards/orca_scan E -79.894928239220
  H          -2.04438174872329     -3.65619902542994      1.38885804910423
  H           0.89967183749217     -3.02881546411751     -0.03331456466707
  H          -4.11938849735690      0.13665766449038      1.85397890278214
  H          -3.04064208832418      4.09725965762135     -0.32665695140054
  H          -1.45303048393728     -2.82364992311700     -0.07341152032650
  H          -3.98214628760795      2.48384977207447      1.10799484102948
  H          -0.50159851191483     -0.73268891012044     -0.24259847405972
  H          -1.36282254386946      4.16738025347453      0.23186983157630
  H           3.15375076809823     -1.60695646823144      3.30573656264308
  H          -0.36455205206753      1.58201893222650     -0.96669820579569
  H           1.04557110399148     -1.32117182992378      4.58514322080350
  H          -1.70697872868963      3.10719281617043     -3.71179553146476
  H           3.06423984731199     -2.51226926446297      1.00536350160725
  N          -2.23225637126345      3.03910440249179     -2.83409832061540
  C          -1.61285248614601      3.75260493583579     -1.84994453287428
  C          -0.44419948858888      4.45463374397313     -2.34790940848378
  C          -2.04978592484359      3.64377105820309     -0.43296635054584
  O          -0.12980662809521      4.34339712275491     -3.55371419267203
  C          -2.16133008081534      2.20177058771914      0.01334139387912
  C          -3.21569020812303      1.78338221695926      0.81610214389835
  C          -3.30420241978346      0.47306236520686      1.23251980135359
  C          -2.33704790361947     -0.45712911825961      0.85266238960103
  C          -1.27417819034324     -0.04574002904062      0.05984909978115
  C          -1.19680819528406      1.27481434935184     -0.35005793191338
  O          -2.53625449951580     -1.73049214321584      1.31627382312718
  C          -1.58506533873764     -2.73760669874514      1.01075787921362
  C          -0.25393471083307     -2.50892501786086      1.68265468243821
  C           0.93540122311458     -2.66949790385460      0.98364324533712
  C           2.15513172404996     -2.37009081285787      1.56707490950365
  C           2.20846988736896     -1.86504419730639      2.85765838698449
  C           1.03997114555604     -1.69831241685643      3.57425247650385
  C          -0.17881960142597     -2.04790852666081      2.99936546538169
  N          -1.34122836694068     -1.94172764578356      3.82363684551857
  O          -2.16179580185063     -2.84530271267772      3.79979796858890
  O          -1.42702182099053     -0.96955911742596      4.56184060543570
  C           1.42153371977940      5.98086261511404     -1.90355312456839
  N           0.27150148219111      5.21437546641919     -1.49191874890677
  H          -0.03774639208281      5.32562054236857     -0.54045366053441
  H           1.61643833061912      5.75487863389760     -2.95047044124157
  H           1.22965230431009      7.04906759761788     -1.79541022684722
  H           2.28944064220420      5.70809105867003     -1.30351971869072
  C          -3.45545701547686      2.42490240246593     -2.84975391350821
  O          -4.23257188580015      2.45598776280139     -1.90596191407832
  C          -3.73805699543976      1.72361593285716     -4.14935264385933
  H          -2.96558941103218      0.98541635405902     -4.34787081634134
  H          -4.70385268227701      1.23170281569150     -4.08733978774969
  H          -3.75068065428741      2.44166616543270     -4.96557504494710
