47
Coordinates from ORCA-job /home/esp/scriptDevelopment/drFrankenstein/11_PCY_CHARMM/04_torsion_scanning/torsion_NH1-CT1-CG321-CG2R61/scans_PCY_conformer_34/PCY_conformer_34_forwards/orca_scan E -79.888644667310
  H          -2.40353924360135     -3.66071204269764      1.30082785133144
  H           0.84049910225458     -3.74041024275521      0.60956222423663
  H          -3.76550310464264      0.45943015922295      1.05156442927243
  H          -0.79500078304238      4.04505237708378     -0.03203885072601
  H          -1.34644679399723     -3.06882154837434     -0.00910286541397
  H          -3.00472877608842      2.66593023861892      0.24268789165562
  H           0.02710346738704     -1.20905235386871      0.01981701927209
  H           0.47610764307232      3.27106625833730     -0.99047381688367
  H           2.52862074824942     -2.45492309969098      4.31825325100602
  H           0.76741013294898      0.95525219295839     -0.78650036418084
  H           0.29459842985029     -1.64207017864808      5.03400468080285
  H          -2.82984823902228      4.01115707735186     -3.23328245344670
  H           2.77318926256759     -3.55069283863982      2.11440628860989
  N          -2.36263099585956      3.28853714926155     -2.67190818173298
  C          -1.26528870318457      3.83360854588565     -2.06565645517902
  C          -1.01625274925961      5.18502787960714     -2.54294363078232
  C          -0.60566492912389      3.31388316470257     -0.82753763363791
  O          -1.73103595425021      5.66162897858121     -3.45211739595135
  C          -1.06441703767387      1.96611685358943     -0.34481006583901
  C          -2.34052785090899      1.81571356454887      0.19009224004544
  C          -2.77563959839549      0.59015765971377      0.64232169250077
  C          -1.93525092417765     -0.52039866294280      0.57777537518324
  C          -0.65132089335969     -0.37414080427423      0.07250581821404
  C          -0.22868436041992      0.86330830158905     -0.38126528300668
  O          -2.47629981895700     -1.68941478700422      1.04643769779220
  C          -1.69901447250221     -2.87505322399868      1.01003606624389
  C          -0.53484627648686     -2.84281747753659      1.96884293912508
  C           0.72055043131019     -3.29765998599604      1.58637583079157
  C           1.81125059602676     -3.18157203007416      2.43160730870477
  C           1.67635084043733     -2.57006867634229      3.66920676270721
  C           0.43818503334560     -2.11073804612515      4.07280747718545
  C          -0.66381100696383     -2.27645170531059      3.23884959213437
  N          -1.93515392833331     -1.86773063610373      3.74859610587949
  O          -2.89085447392270     -2.61224188360733      3.60162726282891
  O          -1.98755179107478     -0.81236045855397      4.36450224174281
  C           0.34631386477383      7.21907193633800     -2.40559084663942
  N          -0.00684220767120      5.88563524629774     -1.98363135983271
  H           0.57103136895640      5.45654362189357     -1.28038555653993
  H          -0.36595571093819      7.52808867245721     -3.16860119056980
  H           0.29560392764669      7.90684790624086     -1.56153491442511
  H           1.35300790901705      7.23548453708675     -2.82454726287273
  C          -2.69504246182289      1.98881687582838     -2.97017075504157
  O          -1.97277434224782      1.03441008798359     -2.73356220805322
  C          -4.03909616298090      1.88062173872761     -3.63611750135884
  H          -4.03285280611371      2.41626338019067     -4.58215827520568
  H          -4.26488526382814      0.83407215096727     -3.81577636783122
  H          -4.80406109699272      2.31360412748046     -2.99696481211540
