47
Coordinates from ORCA-job /home/esp/scriptDevelopment/drFrankenstein/11_PCY_CHARMM/04_torsion_scanning/torsion_NH1-CT1-CG321-CG2R61/scans_PCY_conformer_34/PCY_conformer_34_forwards/orca_scan E -79.893601843970
  H          -2.73810551906689     -3.37901188130469      1.72033634752834
  H           0.38446366375655     -3.99150439061246      0.79121113770697
  H          -3.55002729704782      0.84519009941529      1.08949191871273
  H           0.17803371520590      3.66496023492239     -0.54827792837066
  H          -1.74129703538923     -3.10767812705726      0.26579807846665
  H          -2.56822904377620      2.82846929200599     -0.00471067499186
  H          -0.15090607293245     -1.46271648027610     -0.07467116957786
  H           0.63821794649401      2.67884264885491     -1.94566426386664
  H           2.57945679839485     -2.51596476553897      4.14650634239016
  H           0.79948793021183      0.48113128355665     -1.17051889026816
  H           0.54882057356374     -1.31950483238222      4.92648112617416
  H          -2.88542753019973      3.89060709313495     -3.14237590598468
  H           2.46356447585571     -3.89350092663923      2.09507591932528
  N          -2.21580390331755      3.18094378872946     -2.82770369836421
  C          -1.17098928353032      3.77152679175940     -2.17856470192819
  C          -1.24093441689199      5.22024279719243     -2.25494935442332
  C          -0.20781070285021      3.01114956673797     -1.33354923804356
  O          -2.20681159511210      5.76163418681879     -2.83646789620532
  C          -0.81402706547077      1.79418194961568     -0.67875809659367
  C          -2.04071671955193      1.88605115293699     -0.02856456548165
  C          -2.59762977654729      0.78567039398708      0.58581631887871
  C          -1.93217866299629     -0.43943799547173      0.57253625944486
  C          -0.69706694704645     -0.53466802403348     -0.05399777580970
  C          -0.15239636447018      0.57752643006726     -0.67211604355187
  O          -2.58364304751707     -1.46452386768101      1.20670612977318
  C          -1.96946757698744     -2.74108869768195      1.27286426413542
  C          -0.72506926769120     -2.75309883907915      2.12547723046406
  C           0.41836749202343     -3.42146369890730      1.70689770663257
  C           1.59285710757162     -3.35806755843963      2.43761956048435
  C           1.65986896938346     -2.58872537473190      3.58978840215294
  C           0.53636678352531     -1.91619363810516      4.02759908569337
  C          -0.65523233890784     -2.02524813427356      3.31579239606967
  N          -1.80506483975604     -1.38391227285086      3.87056708798086
  O          -2.86677505695873     -1.98667610269134      3.87845400270887
  O          -1.65326375302761     -0.27564748574279      4.36725387907092
  C          -0.20328553025658      7.38295960710354     -1.74897125711628
  N          -0.24171749417117      5.94193009141167     -1.70380263842391
  H           0.55498290912412      5.47202735371528     -1.30660339223838
  H          -1.11383295392606      7.72622835266837     -2.23701724220938
  H          -0.15670471291927      7.79088451956657     -0.73912104568396
  H           0.66198721146861      7.72565103126299     -2.31715243443240
  C          -2.36532774828258      1.90002811678100     -3.29087072645232
  O          -1.48441824257546      1.05682967663014     -3.21440645096930
  C          -3.71508295554139      1.65734099669230     -3.90624113380609
  H          -3.87996277258653      2.33977842980778     -4.73602754842019
  H          -3.76748262290554      0.63337950347835     -4.26282833246935
  H          -4.49078672637118      1.82146770464752     -3.16231078811103
