47
Coordinates from ORCA-job /home/esp/scriptDevelopment/drFrankenstein/11_PCY_CHARMM/04_torsion_scanning/torsion_NH1-CT1-CG321-CG2R61/scans_PCY_conformer_34/PCY_conformer_34_forwards/orca_scan E -79.898970255610
  H          -0.55693630956444     -0.55345719882022      4.68210041667268
  H          -0.76110076522133     -3.35851812862134      3.22672262610139
  H          -1.97575102141466      2.76161392407237      2.40004988999945
  H          -2.69243448654894      0.65972662980362     -2.58596655687105
  H          -1.88200279157647     -1.50359618473134      3.96437426361086
  H          -2.52272429402114      3.30855776719837      0.05862115968777
  H          -2.35476049426531     -1.39671826715638      1.50974400474549
  H          -3.89636099129996      1.90723650104262     -2.22856990464638
  H           2.01240333636391     -3.08989026535026     -0.00845054996371
  H          -2.85808831619254     -0.85916880137818     -0.80933824457457
  H           2.05337834699908     -0.62622665335313      0.26307780403285
  H          -0.00499389129797      3.14457773878131     -2.68667358725681
  H           0.63572875143835     -4.45299383007523      1.53592654815353
  N          -0.55230573946868      2.30225753654542     -2.48551599252870
  C          -1.87794729248969      2.60171669891008     -2.41688741668116
  C          -2.13378566123506      4.00769151107400     -2.67573092979272
  C          -2.87891983458245      1.57560959286581     -2.02214803176390
  O          -1.18489873861881      4.75916053453047     -2.98809519855898
  C          -2.70670639619738      1.25756006168113     -0.55075393536291
  C          -2.49202020308150      2.27565389772810      0.37245461044070
  C          -2.18746281422003      1.98244718633417      1.68423843990966
  C          -2.08544247189314      0.65588895313930      2.10050080067376
  C          -2.38321635929722     -0.36387142976850      1.20327945698972
  C          -2.68034067837437     -0.05680979357287     -0.11137721925698
  O          -1.66788373672004      0.46588159703985      3.38960667838704
  C          -1.08727235874103     -0.77759395242351      3.75021462058597
  C          -0.13188934301593     -1.37959333853569      2.74917589353058
  C          -0.12769494703048     -2.76148382595205      2.58893623000890
  C           0.65147349808385     -3.37893052375459      1.62679473915671
  C           1.42696360225471     -2.61869371951560      0.76327807103893
  C           1.44902255265144     -1.24814448076366      0.90376341024320
  C           0.70160632842969     -0.63210516890063      1.90784102810919
  N           0.86346951765207      0.77468743828229      2.04589033669968
  O           0.80704567085167      1.27279147658237      3.16296719562188
  O           1.11007152357240      1.42909725506492      1.03479609550552
  C          -3.75951902232640      5.83922431054602     -2.78920684276364
  N          -3.40200430483047      4.45893497426516     -2.57542085009219
  H          -4.13050953089437      3.83726372868561     -2.26437973600764
  H          -2.86154254976085      6.37373539366257     -3.09427742654261
  H          -4.51260404091940      5.91574595139552     -3.57329506639242
  H          -4.14800757352767      6.28083136684273     -1.87068516147109
  C           0.11995106525108      1.12636299823361     -2.27806312700433
  O          -0.43930206079613      0.05871668965543     -2.07378890335475
  C           1.61205365311407      1.29335104024230     -2.31402096777124
  H           1.92348059436499      1.69014858662961     -1.34751445360743
  H           2.08105580815014      0.32570477573199     -2.46466294620280
  H           1.91772477024645      1.98361944610640     -3.09350127143745
