47
Coordinates from ORCA-job /home/esp/scriptDevelopment/drFrankenstein/11_PCY_CHARMM/04_torsion_scanning/torsion_NH1-CT1-CG321-CG2R61/scans_PCY_conformer_34/PCY_conformer_34_forwards/orca_scan E -79.898430117050
  H          -2.65763567235616     -0.92949247726679      4.16869365121720
  H          -2.85938265930694     -2.87778757901825      1.48268945309649
  H          -0.52960141582973      2.68457984498896      3.03669513679909
  H           0.49019368811740      4.04377699136112     -1.31678458659772
  H          -3.23313025299608     -0.77994909187672      2.48695092613277
  H           0.28140816475560      3.86846499211098      1.03211141397060
  H          -1.97206419751938     -0.49027074945814      0.57064622652984
  H           0.86855627390408      2.47908055702069     -2.04910708535138
  H           1.05376437789641     -4.58871974380770      1.38913631346308
  H          -1.17781870199140      0.68356407246940     -1.40605556923177
  H           1.83075821412736     -2.85650994799045      2.98831310516696
  H          -1.83730504345485      2.98137110125622     -4.34713344574590
  H          -1.31681280676401     -4.61258909944629      0.68316187506313
  N          -0.98460663537854      2.72320439431803     -3.83801480579435
  C          -1.01898073425846      3.24504019075836     -2.58164066428661
  C          -2.24029020536067      3.98906686026001     -2.33220737906811
  C           0.07479440437287      3.06895941081412     -1.58705909990734
  O          -3.09634097982881      4.09684309931394     -3.23682745947362
  C          -0.40981471104871      2.36647287863098     -0.33916094538402
  C          -0.22781169355475      2.92217081432508      0.92339419622237
  C          -0.67248275185415      2.26681094409260      2.05267091053915
  C          -1.31598265241452      1.03436626603797      1.94557813315404
  C          -1.49476248472328      0.46788409800901      0.68898563225917
  C          -1.04343313979246      1.13644424717707     -0.43537909713558
  O          -1.72023923970974      0.48297575598188      3.12965779029352
  C          -2.34546686680069     -0.79013457375572      3.12905498409875
  C          -1.41618185628128     -1.90368227304276      2.71376304988229
  C          -1.83552827990553     -2.88413021166709      1.82382472268195
  C          -0.96309174113626     -3.85745097971441      1.36643047336971
  C           0.36592149445742     -3.84842162378531      1.76294344923343
  C           0.80722218650378     -2.88508908444057      2.64810898045616
  C          -0.08675956795564     -1.93919476461307      3.14269560706976
  N           0.40851483208324     -1.02952827724373      4.12689719088391
  O          -0.29020811794486     -0.77451508921335      5.09449093601172
  O           1.54074891427629     -0.59063897138091      3.97670245541798
  C          -3.57505481967424      5.29048773141090     -0.74202216444298
  N          -2.38690138540402      4.56802507126571     -1.12258092719529
  H          -1.71156947316928      4.37219804865496     -0.40032548726194
  H          -4.21925759857537      5.35950833549254     -1.61683318789168
  H          -4.10279937480172      4.76762181039048      0.05663659413074
  H          -3.31219393032731      6.29225108423763     -0.40306831049752
  C          -0.06030968160961      1.94842933160484     -4.48406522956134
  O           0.98566919528206      1.56906073334230     -3.96869674535424
  C          -0.46635842448995      1.61039857266343     -5.89096919844145
  H          -0.58860808871695      2.52170217069689     -6.47097861747616
  H           0.30149798105638      0.99243781860847     -6.34629669748176
  H          -1.41126454189749      1.07290731042669     -5.88899650356289
