47
Coordinates from ORCA-job /home/esp/scriptDevelopment/drFrankenstein/11_PCY_CHARMM/04_torsion_scanning/torsion_NH1-CT1-CG321-CG2R61/scans_PCY_conformer_34/PCY_conformer_34_forwards/orca_scan E -79.898791206210
  H          -1.25030799736336      0.29652745431452      4.79867175519708
  H          -3.06069619206767     -2.14923052292580      3.44021329695168
  H           0.54566297869246      2.54579034858318      1.54192374265697
  H          -0.25601171691429      1.09603181634465     -3.08964669258753
  H          -2.55910867697514      0.14690751409318      3.59641168573776
  H           0.39951013095852      2.78868904697130     -0.91324024570833
  H          -2.40980040056819     -0.53435575824720      1.39973768517149
  H          -1.99996076847730      0.81372890764000     -3.02592690101835
  H          -0.02343643950776     -4.99212067944006      2.46908261342589
  H          -2.56088891171214     -0.28439928211126     -1.00837606474241
  H           1.70006945566662     -3.23532797656822      2.79297966424267
  H          -0.90265159976633      4.51365389012767     -3.95759377979525
  H          -2.40501416481114     -4.43985656138001      2.84683227327961
  N          -0.55019929480720      3.55983119108965     -3.82042985562397
  C          -1.40977734494644      2.85564913684196     -3.03499163036483
  C          -2.54914206783309      3.65339464298553     -2.61860189800379
  C          -1.18966246559886      1.43785107915278     -2.63868891248537
  O          -2.64867841780073      4.83959965822023     -3.00001283533087
  C          -1.10663965725922      1.28167147280366     -1.13754161217660
  C          -0.22633345730415      2.07178895866049     -0.40368054311562
  C          -0.13597858413454      1.94131322353288      0.96421707368993
  C          -0.92556874402835      1.00857582942501      1.63925896546067
  C          -1.79812521102808      0.20750808564555      0.91500123224911
  C          -1.88348632259764      0.35395695471231     -0.46066951079417
  O          -0.75529933433688      0.97379151154457      2.99528944971226
  C          -1.48304911003317      0.02829574582320      3.76360812050222
  C          -1.06651544063291     -1.39571991178863      3.49060606582221
  C          -2.01713641537269     -2.39254269064441      3.31229085395093
  C          -1.64769729307285     -3.68257985277479      2.96991856720501
  C          -0.31301159562843     -3.99598698093887      2.76023399284433
  C           0.65147123282036     -3.02325428602067      2.93322319076519
  C           0.27775874435742     -1.74051199908936      3.32548703231699
  N           1.32915011544086     -0.80776457687523      3.58014770328435
  O           1.24125970752490     -0.07424289211338      4.55210036137096
  O           2.30120601719364     -0.82946315509623      2.83657796423843
  C          -4.62553863584324      3.76327404150851     -1.32287404732341
  N          -3.48725569368894      3.05582379671500     -1.85452147093874
  H          -3.30283808375501      2.13401449327784     -1.49044393547277
  H          -4.65155161144377      4.74957914885260     -1.78280697194328
  H          -5.54249228694938      3.22518961300070     -1.56019989193200
  H          -4.54019391780397      3.87318818321525     -0.24068427601567
  C           0.64644406442874      3.22806454425447     -4.39473130677043
  O           1.16610629745467      2.12248861676053     -4.28743781332173
  C           1.25297183179321      4.36151607853132     -5.17313641006345
  H           1.42346792948964      5.21430966962295     -4.52075188594988
  H           2.19751155796863      4.03764808502372     -5.59951394515799
  H           0.58045779027318      4.66570438673889     -5.97128085343919
