47
Coordinates from ORCA-job /home/esp/scriptDevelopment/drFrankenstein/11_PCY_CHARMM/04_torsion_scanning/torsion_NH1-CT1-CG321-CG2R61/scans_PCY_conformer_34/PCY_conformer_34_forwards/orca_scan E -79.893992623860
  H          -2.20068347702604     -3.63416071665544      1.41457156246090
  H           0.73499689635194     -3.13941249565497     -0.07544968606843
  H          -4.08813485956464      0.24941650854374      1.93328409698722
  H          -2.86501326319527      4.17570571327734     -0.22855946694501
  H          -1.60761133788430     -2.82764788316114     -0.06154466873202
  H          -3.86235993072725      2.58838421499786      1.18562093120435
  H          -0.56863577724840     -0.78190336765198     -0.25478953507424
  H          -1.15473174010542      4.12780827501280      0.22698239624271
  H           3.12608196304492     -1.81389774576037      3.20741742465724
  H          -0.34195230628417      1.52551790220165     -0.97832966546506
  H           1.06269259738325     -1.43441633687577      4.53479450131999
  H          -1.58066435474402      3.05575552087052     -3.67335475443977
  H           2.94366884221834     -2.71742476052798      0.91204320484249
  N          -2.09832750512474      2.97621805856159     -2.79209128999681
  C          -1.54059988015106      3.77572444112801     -1.83726480392647
  C          -0.45932524412039      4.58165583697286     -2.37469160609627
  C          -1.91393623122532      3.66001383743411     -0.40131243138875
  O          -0.13783830901418      4.45588735897511     -3.57688972178542
  C          -2.08631797018116      2.22505663617720      0.04170298748279
  C          -3.13657023458305      1.85426815452725      0.87283421486915
  C          -3.27473601899939      0.54887365011534      1.29090018856420
  C          -2.36208298378316     -0.42435605815074      0.88542221691361
  C          -1.30143593384284     -0.06086842565654      0.06676504394814
  C          -1.17355383514119      1.25541504087994     -0.34381422827841
  O          -2.60793030317693     -1.68841121125739      1.35311692483181
  C          -1.71001330830658     -2.73658500684360      1.02543188087576
  C          -0.35455062969905     -2.56736382642663      1.66563632760301
  C           0.81002556486509     -2.78093205968301      0.93965954587908
  C           2.05489110034737     -2.53475577166069      1.49418588775627
  C           2.16024309188193     -2.03094128253945      2.78203906122976
  C           1.01714671604690     -1.81231348591659      3.52519721037619
  C          -0.22868483504890     -2.10886952776329      2.97930767423188
  N          -1.36612305074587     -1.95140647381716      3.82976868553426
  O          -2.22447968111162     -2.81950213055040      3.82753687648928
  O          -1.39361485569518     -0.97507154819068      4.56690078154435
  C           1.22350622550046      6.32520791867791     -2.00623677348496
  N           0.16735328059646      5.45282377992105     -1.55512010625078
  H          -0.17040430067935      5.58859497253798     -0.61659701850004
  H           1.45291213477813      6.06621163345220     -3.03839279170135
  H           0.90829211833387      7.36829384145140     -1.95864956053241
  H           2.11150379181760      6.18837744095634     -1.38952335678256
  C          -3.28766243831764      2.29701795899075     -2.79328888215895
  O          -4.08716363906915      2.35031027226778     -1.87010435781079
  C          -3.50105613081196      1.49927677883197     -4.04945809482608
  H          -2.68199309559165      0.79833109104659     -4.18637631429595
  H          -4.43760723416523      0.95566041952612     -3.97302879161703
  H          -3.53851962780113      2.16243285740836     -4.91022171968676
