47
Coordinates from ORCA-job /home/esp/scriptDevelopment/drFrankenstein/11_PCY_CHARMM/04_torsion_scanning/torsion_NH1-CT1-CG321-CG2R61/scans_PCY_conformer_34/PCY_conformer_34_forwards/orca_scan E -79.896536615380
  H          -1.02971449342793     -0.54446267615668      4.84083984752479
  H          -1.13682147438388     -3.36636162503313      3.40616009411244
  H          -1.97476871385537      2.78644762315745      2.31605536084823
  H          -2.30372869592606      0.61970736408703     -2.67418994346839
  H          -2.27881443297967     -1.43331799948823      3.93283288502840
  H          -2.30181994231657      3.30749962603270     -0.06393984003389
  H          -2.37611871673233     -1.37719387471311      1.46096203625181
  H          -3.65747069519865      1.72963137542659     -2.41406511673415
  H           2.10231307834098     -3.27206696681720      0.62476639475188
  H          -2.67564437046129     -0.86484907318761     -0.89690492617366
  H           2.20556855749774     -0.80428835781141      0.86486797374683
  H          -0.01825565742760      3.33087894059272     -3.23354027950966
  H           0.45244693256767     -4.54841963721844      1.96052607774742
  N          -0.45362445512379      2.44429279838069     -2.96049224543210
  C          -1.73976765097773      2.64707980431395     -2.56427901419710
  C          -2.13076710331615      4.04156769939093     -2.65084052167537
  C          -2.61758884328604      1.52218138647877     -2.14997902482398
  O          -1.31392031946761      4.89076753848680     -3.06801810243516
  C          -2.51144481750689      1.25256328762860     -0.65989553648961
  C          -2.33357903472908      2.27886476819021      0.26077534595336
  C          -2.14747297471740      1.99948966145111      1.59830078767129
  C          -2.12901223813876      0.68038032885220      2.04748577375233
  C          -2.35874084638928     -0.34822167411818      1.14109932105189
  C          -2.53794226354723     -0.05457353231391     -0.19831751407738
  O          -1.85966479727690      0.51018673170038      3.37838469457404
  C          -1.42004401036792     -0.75639770801090      3.83975790282359
  C          -0.35522297601178     -1.42467811285973      3.00520327284556
  C          -0.38888556235109     -2.80829763265825      2.86446381048561
  C           0.49985034981148     -3.47436153058381      2.03947497592151
  C           1.42831900215837     -2.76272357296011      1.29319765117169
  C           1.48817981582248     -1.39102429684001      1.41702317782213
  C           0.62699277622942     -0.72871257773771      2.29157965839350
  N           0.82814838643992      0.67428099396643      2.43909225669979
  O           0.66730213825372      1.18054593661409      3.54028352383060
  O           1.20812034824552      1.30673018779952      1.45893542554479
  C          -3.87453874469881      5.72832380638148     -2.28860057893217
  N          -3.38843090332384      4.37115561217949     -2.28359993500693
  H          -3.98732017342088      3.66747625886273     -1.88306198900771
  H          -3.10552667194750      6.35712976292983     -2.73403857657252
  H          -4.78863016973455      5.79666316462222     -2.87764286385556
  H          -4.07422191893651      6.06959792458439     -1.27163369712034
  C           0.32552511585422      1.31743682856855     -2.94573720281158
  O          -0.07948233179722      0.22099535839424     -2.58414989815368
  C           1.72785331512008      1.57567518425095     -3.42063687163445
  H           2.24755224946092      2.18562972810967     -2.68450157485055
  H           2.25013257325682      0.63005738647727     -3.52858878025608
  H           1.71968136071700      2.10471378059739     -4.36938421530138
